(PID.TID 0000.0001) 
(PID.TID 0000.0001) // ======================================================
(PID.TID 0000.0001) //                      MITgcm UV
(PID.TID 0000.0001) //                      =========
(PID.TID 0000.0001) // ======================================================
(PID.TID 0000.0001) // execution environment starting up...
(PID.TID 0000.0001) 
(PID.TID 0000.0001) // MITgcmUV version:  checkpoint67v
(PID.TID 0000.0001) // Build user:        bgetraer
(PID.TID 0000.0001) // Build host:        totten
(PID.TID 0000.0001) // Build date:        Wed Jul 26 11:53:30 AM EDT 2023
(PID.TID 0000.0001) 
(PID.TID 0000.0001) // =======================================================
(PID.TID 0000.0001) // Execution Environment parameter file "eedata"
(PID.TID 0000.0001) // =======================================================
(PID.TID 0000.0001) ># Example "eedata" file
(PID.TID 0000.0001) ># Lines beginning "#" are comments
(PID.TID 0000.0001) ># nTx - No. threads per process in X
(PID.TID 0000.0001) ># nTy - No. threads per process in Y
(PID.TID 0000.0001) > &EEPARMS
(PID.TID 0000.0001) > useCoupler=.FALSE.,
(PID.TID 0000.0001) > debugMode=.FALSE.,
(PID.TID 0000.0001) > /
(PID.TID 0000.0001) ># Note: Some systems use & as the
(PID.TID 0000.0001) ># namelist terminator. Other systems
(PID.TID 0000.0001) ># use a / character (as shown here).
(PID.TID 0000.0001) 
(PID.TID 0000.0001) // =======================================================
(PID.TID 0000.0001) // Computational Grid Specification ( see files "SIZE.h" )
(PID.TID 0000.0001) //                                  ( and "eedata"       )
(PID.TID 0000.0001) // =======================================================
(PID.TID 0000.0001)      nPx =    2 ; /* No. processes in X */
(PID.TID 0000.0001)      nPy =    6 ; /* No. processes in Y */
(PID.TID 0000.0001)      nSx =    1 ; /* No. tiles in X per process */
(PID.TID 0000.0001)      nSy =    1 ; /* No. tiles in Y per process */
(PID.TID 0000.0001)      sNx =   31 ; /* Tile size in X */
(PID.TID 0000.0001)      sNy =   17 ; /* Tile size in Y */
(PID.TID 0000.0001)      OLx =    3 ; /* Tile overlap distance in X */
(PID.TID 0000.0001)      OLy =    3 ; /* Tile overlap distance in Y */
(PID.TID 0000.0001)      nTx =    1 ; /* No. threads in X per process */
(PID.TID 0000.0001)      nTy =    1 ; /* No. threads in Y per process */
(PID.TID 0000.0001)       Nr =   55 ; /* No. levels in the vertical   */
(PID.TID 0000.0001)       Nx =   62 ; /* Total domain size in X ( = nPx*nSx*sNx ) */
(PID.TID 0000.0001)       Ny =  102 ; /* Total domain size in Y ( = nPy*nSy*sNy ) */
(PID.TID 0000.0001)   nTiles =    1 ; /* Total no. tiles per process ( = nSx*nSy ) */
(PID.TID 0000.0001)   nProcs =   12 ; /* Total no. processes ( = nPx*nPy ) */
(PID.TID 0000.0001) nThreads =    1 ; /* Total no. threads per process ( = nTx*nTy ) */
(PID.TID 0000.0001) usingMPI =    T ; /* Flag used to control whether MPI is in use */
(PID.TID 0000.0001)                   /*  note: To execute a program with MPI calls */
(PID.TID 0000.0001)                   /*  it must be launched appropriately e.g     */
(PID.TID 0000.0001)                   /*  "mpirun -np 64 ......"                    */
(PID.TID 0000.0001) useCoupler=   F ; /* Flag used to control communications with   */
(PID.TID 0000.0001)                   /*  other model components, through a coupler */
(PID.TID 0000.0001) useNest2W_parent =    F ;/* Control 2-W Nesting comm */
(PID.TID 0000.0001) useNest2W_child  =    F ;/* Control 2-W Nesting comm */
(PID.TID 0000.0001) debugMode =    F ; /* print debug msg. (sequence of S/R calls)  */
(PID.TID 0000.0001) printMapIncludesZeros=    F ; /* print zeros in Std.Output maps */
(PID.TID 0000.0001) maxLengthPrt1D=   65 /* maxLength of 1D array printed to StdOut */
(PID.TID 0000.0001) 
(PID.TID 0000.0001) ======= Starting MPI parallel Run =========
(PID.TID 0000.0001)  My Processor Name (len:  6 ) = totten
(PID.TID 0000.0001)  Located at (  0,  0) on processor grid (0:  1,0:  5)
(PID.TID 0000.0001)  Origin at  (     1,     1) on global grid (1:    62,1:   102)
(PID.TID 0000.0001)  North neighbor = processor 0001
(PID.TID 0000.0001)  South neighbor = processor 0005
(PID.TID 0000.0001)   East neighbor = processor 0006
(PID.TID 0000.0001)   West neighbor = processor 0006
(PID.TID 0000.0001) // ======================================================
(PID.TID 0000.0001) // Mapping of tiles to threads
(PID.TID 0000.0001) // ======================================================
(PID.TID 0000.0001) // -o- Thread   1, tiles (   1:   1,   1:   1)
(PID.TID 0000.0001) 
(PID.TID 0000.0001) // ======================================================
(PID.TID 0000.0001) // Tile <-> Tile connectvity table
(PID.TID 0000.0001) // ======================================================
(PID.TID 0000.0001) // Tile number: 000001 (process no. = 000000)
(PID.TID 0000.0001) //        WEST: Tile = 000002, Process = 000006, Comm = messages
(PID.TID 0000.0001) //                bi = 000001, bj = 000001
(PID.TID 0000.0001) //        EAST: Tile = 000002, Process = 000006, Comm = messages
(PID.TID 0000.0001) //                bi = 000001, bj = 000001
(PID.TID 0000.0001) //       SOUTH: Tile = 000011, Process = 000005, Comm = messages
(PID.TID 0000.0001) //                bi = 000001, bj = 000001
(PID.TID 0000.0001) //       NORTH: Tile = 000003, Process = 000001, Comm = messages
(PID.TID 0000.0001) //                bi = 000001, bj = 000001
(PID.TID 0000.0001) 
(PID.TID 0000.0001)  INI_PARMS: opening model parameter file "data"
(PID.TID 0000.0001)  OPEN_COPY_DATA_FILE: opening file data
(PID.TID 0000.0001) // =======================================================
(PID.TID 0000.0001) // Parameter file "data"
(PID.TID 0000.0001) // =======================================================
(PID.TID 0000.0001) ># ====================
(PID.TID 0000.0001) ># | Model parameters |
(PID.TID 0000.0001) ># ====================
(PID.TID 0000.0001) >#
(PID.TID 0000.0001) ># Continuous equation parameters
(PID.TID 0000.0001) > &PARM01
(PID.TID 0000.0001) ># momstepping=.FALSE.,
(PID.TID 0000.0001) ># tempstepping=.FALSE.,
(PID.TID 0000.0001) ># saltstepping=.FALSE.,
(PID.TID 0000.0001) ># BENJY: these should be of form Xref=nz*X_0. Why is nz 40 instead of 55?
(PID.TID 0000.0001) ># reference potential Temperature for each layer (deg C)
(PID.TID 0000.0001) > Tref = 40*-1.9,
(PID.TID 0000.0001) ># reference Salinity for each layer (ppt)
(PID.TID 0000.0001) > Sref = 40*34.4,
(PID.TID 0000.0001) > viscAr=1.E-3,
(PID.TID 0000.0001) > viscAh=10.0,
(PID.TID 0000.0001) > no_slip_sides=.FALSE.,
(PID.TID 0000.0001) > no_slip_bottom=.FALSE.,
(PID.TID 0000.0001) > diffKhT= 10.0,
(PID.TID 0000.0001) > diffKrT=5.E-5,
(PID.TID 0000.0001) > diffKhS= 10.0,
(PID.TID 0000.0001) > diffKrS=5.E-5,
(PID.TID 0000.0001) > bottomDragQuadratic=2.5E-3,
(PID.TID 0000.0001) > staggerTimestep = .true.,
(PID.TID 0000.0001) > tempAdvScheme=33,
(PID.TID 0000.0001) > saltAdvScheme=33,
(PID.TID 0000.0001) ># vectorInvariantMomentum = .true.,
(PID.TID 0000.0001) ># momImplVertAdv=.true.,
(PID.TID 0000.0001) ># tempImplVertAdv=.true.,
(PID.TID 0000.0001) ># saltImplVertAdv=.true.,
(PID.TID 0000.0001) > eosType='JMD95Z',
(PID.TID 0000.0001) >#tAlpha = 2.E-4,
(PID.TID 0000.0001) >#sBeta  = 7.4E-4,
(PID.TID 0000.0001) > HeatCapacity_cp = 3974.0,
(PID.TID 0000.0001) > rhoConst=1000.,
(PID.TID 0000.0001) > rhoNil=1000.,
(PID.TID 0000.0001) > gravity=9.81,
(PID.TID 0000.0001) > gBaro=9.81,
(PID.TID 0000.0001) > rigidLid=.FALSE.,
(PID.TID 0000.0001) > implicitFreeSurface=.TRUE.,
(PID.TID 0000.0001) > useRealFreshWaterFlux = .true.,
(PID.TID 0000.0001) > exactConserv=.TRUE.,
(PID.TID 0000.0001) > nonlinFreeSurf=4,
(PID.TID 0000.0001) > hFacInf=0.2,
(PID.TID 0000.0001) > hFacSup=2.0,
(PID.TID 0000.0001) > hFacMin=0.2,
(PID.TID 0000.0001) > readBinaryPrec=64,
(PID.TID 0000.0001) > debuglevel = 1,
(PID.TID 0000.0001) > selectCoriMap = 0,
(PID.TID 0000.0001) > f0 = -1.e-4,
(PID.TID 0000.0001) > useSingleCpuIO=.TRUE.,
(PID.TID 0000.0001) > globalFiles=.TRUE.,
(PID.TID 0000.0001) > useCoriolis=.TRUE.,
(PID.TID 0000.0001) > /
(PID.TID 0000.0001) >
(PID.TID 0000.0001) ># Elliptic solver parameters
(PID.TID 0000.0001) > &PARM02
(PID.TID 0000.0001) > cg2dMaxIters=1000,
(PID.TID 0000.0001) > cg2dTargetResidual=1.E-11,
(PID.TID 0000.0001) ># cg2dMinColumnEps = 1.
(PID.TID 0000.0001) ># pReleaseVisc = 1.
(PID.TID 0000.0001) > cg3dMaxIters=400,
(PID.TID 0000.0001) > cg3dTargetResidual=1.E-13,
(PID.TID 0000.0001) > /
(PID.TID 0000.0001) >
(PID.TID 0000.0001) >#Time stepping parameters
(PID.TID 0000.0001) > &PARM03
(PID.TID 0000.0001) > niter0 = 864
(PID.TID 0000.0001) > deltaT=100.0,
(PID.TID 0000.0001) > ntimesteps = 865
(PID.TID 0000.0001) > cAdjFreq = -1.,
(PID.TID 0000.0001) > pChkptFreq = 86400
(PID.TID 0000.0001) > chkptFreq=864000.0,
(PID.TID 0000.0001) > dumpFreq=864000,
(PID.TID 0000.0001) ># pickupsuff='ckptA'
(PID.TID 0000.0001) > monitorFreq=100.0,
(PID.TID 0000.0001) > monitorSelect=1,
(PID.TID 0000.0001) > /
(PID.TID 0000.0001) >
(PID.TID 0000.0001) ># Gridding parameters
(PID.TID 0000.0001) > &PARM04
(PID.TID 0000.0001) > usingCartesianGrid=.TRUE.,
(PID.TID 0000.0001) > delX=62*1000,
(PID.TID 0000.0001) > delY=102*1000,
(PID.TID 0000.0001) > delR=55*20,
(PID.TID 0000.0001) > xgOrigin=-1000,
(PID.TID 0000.0001) > ygOrigin=-2000,
(PID.TID 0000.0001) > /
(PID.TID 0000.0001) >
(PID.TID 0000.0001) ># Input datasets
(PID.TID 0000.0001) > &PARM05
(PID.TID 0000.0001) > bathyFile='BATHY60.box',
(PID.TID 0000.0001) > hydrogThetaFile='theta.init',	
(PID.TID 0000.0001) > hydrogSaltFile='salt.init',
(PID.TID 0000.0001) > pSurfInitFile='etainit.round.bin',
(PID.TID 0000.0001) > /
(PID.TID 0000.0001) 
(PID.TID 0000.0001)  INI_PARMS ; starts to read PARM01
(PID.TID 0000.0001)  INI_PARMS ; read PARM01 : OK
(PID.TID 0000.0001)  INI_PARMS ; starts to read PARM02
(PID.TID 0000.0001)  INI_PARMS ; read PARM02 : OK
(PID.TID 0000.0001)  INI_PARMS ; starts to read PARM03
(PID.TID 0000.0001)  INI_PARMS ; read PARM03 : OK
(PID.TID 0000.0001)  INI_PARMS ; starts to read PARM04
(PID.TID 0000.0001)  INI_PARMS ; read PARM04 : OK
(PID.TID 0000.0001)  INI_PARMS ; starts to read PARM05
(PID.TID 0000.0001)  INI_PARMS ; read PARM05 : OK
(PID.TID 0000.0001)  INI_PARMS: finished reading file "data"
(PID.TID 0000.0001)  PACKAGES_BOOT: opening data.pkg
(PID.TID 0000.0001)  OPEN_COPY_DATA_FILE: opening file data.pkg
(PID.TID 0000.0001) // =======================================================
(PID.TID 0000.0001) // Parameter file "data.pkg"
(PID.TID 0000.0001) // =======================================================
(PID.TID 0000.0001) ># Packages (lines beginning "#" are comments)
(PID.TID 0000.0001) > &PACKAGES
(PID.TID 0000.0001) > useOBCS=.TRUE.,
(PID.TID 0000.0001) > useShelfIce=.TRUE.,
(PID.TID 0000.0001) > useDiagnostics = .TRUE.,
(PID.TID 0000.0001) > /
(PID.TID 0000.0001) 
(PID.TID 0000.0001)  PACKAGES_BOOT: finished reading data.pkg
(PID.TID 0000.0001)  PACKAGES_BOOT: On/Off package Summary
 --------  pkgs with a standard "usePKG" On/Off switch in "data.pkg":  --------
 pkg/obcs                 compiled   and   used ( useOBCS                  = T )
 pkg/shelfice             compiled   and   used ( useShelfIce              = T )
 pkg/diagnostics          compiled   and   used ( useDiagnostics           = T )
 -------- pkgs without standard "usePKG" On/Off switch in "data.pkg":  --------
 pkg/generic_advdiff      compiled   and   used ( useGAD                   = T )
 pkg/mom_common           compiled   and   used ( momStepping              = T )
 pkg/mom_vecinv           compiled but not used ( +vectorInvariantMomentum = F )
 pkg/mom_fluxform         compiled   and   used ( & not vectorInvariantMom = T )
 pkg/monitor              compiled   and   used ( monitorFreq > 0.         = T )
 pkg/debug                compiled but not used ( debugMode                = F )
 pkg/rw                   compiled   and   used
 pkg/mdsio                compiled   and   used
(PID.TID 0000.0001)  PACKAGES_BOOT: End of package Summary
(PID.TID 0000.0001) 
(PID.TID 0000.0001)  OBCS_READPARMS: opening data.obcs
(PID.TID 0000.0001)  OPEN_COPY_DATA_FILE: opening file data.obcs
(PID.TID 0000.0001) // =======================================================
(PID.TID 0000.0001) // Parameter file "data.obcs"
(PID.TID 0000.0001) // =======================================================
(PID.TID 0000.0001) ># Open-boundaries
(PID.TID 0000.0001) > &OBCS_PARM01
(PID.TID 0000.0001) > OB_Jnorth=62*102,
(PID.TID 0000.0001) > useOBCSprescribe=.true.,
(PID.TID 0000.0001) > useOBCSsponge=.true.,
(PID.TID 0000.0001) > useLinearSponge = .TRUE.,
(PID.TID 0000.0001) ># OBWuFile='uvel.obw',
(PID.TID 0000.0001) ># OBNvFile='vvel.obw',
(PID.TID 0000.0001) > OBNtFile='theta.obw',
(PID.TID 0000.0001) > OBNsFile='salt.obw',
(PID.TID 0000.0001) > useOrlanskiNorth=.FALSE.,
(PID.TID 0000.0001) > useOBCSbalance=.TRUE.,
(PID.TID 0000.0001) > OBCS_balanceFacN=1.,
(PID.TID 0000.0001) > /
(PID.TID 0000.0001) >
(PID.TID 0000.0001) ># Orlanski parameters
(PID.TID 0000.0001) > &OBCS_PARM02
(PID.TID 0000.0001) >#Cmax=0.45,
(PID.TID 0000.0001) >#cVelTimeScale=1000.,
(PID.TID 0000.0001) > /
(PID.TID 0000.0001) >
(PID.TID 0000.0001) ># Sponge layer parameters
(PID.TID 0000.0001) > &OBCS_PARM03
(PID.TID 0000.0001) > spongeThickness = 5,
(PID.TID 0000.0001) > Vrelaxobcsbound = 864000.,
(PID.TID 0000.0001) > Urelaxobcsbound = 864000.,
(PID.TID 0000.0001) > /
(PID.TID 0000.0001) 
(PID.TID 0000.0001)  OBCS_READPARMS: finished reading data.obcs
(PID.TID 0000.0001)  OB_indexUnset = /* unset OB index value (i.e. no OB) */
(PID.TID 0000.0001)                       0
(PID.TID 0000.0001)     ;
(PID.TID 0000.0001)  Northern OB global indices : OB_Jnorth =
(PID.TID 0000.0001)    62 @      102                            /* I =  1: 62 */
(PID.TID 0000.0001)  Southern OB global indices : OB_Jsouth =
(PID.TID 0000.0001)    62 @        0                            /* I =  1: 62 */
(PID.TID 0000.0001)  Eastern  OB global indices : OB_Ieast =
(PID.TID 0000.0001)   102 @        0                            /* J =  1:102 */
(PID.TID 0000.0001)  Western  OB global indices : OB_Iwest =
(PID.TID 0000.0001)   102 @        0                            /* J =  1:102 */
(PID.TID 0000.0001) 
(PID.TID 0000.0001)  SHELFICE_READPARMS: opening data.shelfice
(PID.TID 0000.0001)  OPEN_COPY_DATA_FILE: opening file data.shelfice
(PID.TID 0000.0001) // =======================================================
(PID.TID 0000.0001) // Parameter file "data.shelfice"
(PID.TID 0000.0001) // =======================================================
(PID.TID 0000.0001) ># ===================================
(PID.TID 0000.0001) ># | Parameters for SHELFICE package |
(PID.TID 0000.0001) ># ===================================
(PID.TID 0000.0001) > &SHELFICE_PARM01
(PID.TID 0000.0001) > SHELFICEwriteState = .true.,
(PID.TID 0000.0001) > SHELFICEconserve = .true.,
(PID.TID 0000.0001) > SHELFICEboundaryLayer = .true.,
(PID.TID 0000.0001) > SHELFICEtopoFile='shelftopo.round.bin',
(PID.TID 0000.0001) > SHI_withBL_realFWflux=.true.
(PID.TID 0000.0001) > SHELFICEmassFile = 'shelficemassinit.bin',
(PID.TID 0000.0001) > SHELFICEMassDynTendFile = 'shelfice_dmdt.bin'
(PID.TID 0000.0001) > SHELFICEuseGammaFrict = .true.,
(PID.TID 0000.0001) > SHELFICEDragQuadratic = 0.0097,
(PID.TID 0000.0001) > shiCdrag = 0.0097,
(PID.TID 0000.0001) > SHELFICEheatTransCoeff = 0.0135,
(PID.TID 0000.0001) > SHELFICEsaltTransCoeff = 0.000265,
(PID.TID 0000.0001) > SHELFICEMassStepping = .true.,
(PID.TID 0000.0001) > SHELFICERemeshFrequency = 3600.0,
(PID.TID 0000.0001) > SHELFICESplitThreshold =1.3,
(PID.TID 0000.0001) > SHELFICEMergeThreshold =0.29,
(PID.TID 0000.0001) > SHELFICE_conserve_ssh = .true.,
(PID.TID 0000.0001) > SHELFICEaddrunoff=.FALSE.
(PID.TID 0000.0001) > SHELFICESubglFluxFile='runoff_flux.bin'
(PID.TID 0000.0001) > /
(PID.TID 0000.0001) 
(PID.TID 0000.0001)  SHELFICE_READPARMS: finished reading data.shelfice
(PID.TID 0000.0001)  DIAGNOSTICS_READPARMS: opening data.diagnostics
(PID.TID 0000.0001)  OPEN_COPY_DATA_FILE: opening file data.diagnostics
(PID.TID 0000.0001) // =======================================================
(PID.TID 0000.0001) // Parameter file "data.diagnostics"
(PID.TID 0000.0001) // =======================================================
(PID.TID 0000.0001) ># Diagnostic Package Choices
(PID.TID 0000.0001) >#-----------------
(PID.TID 0000.0001) ># for each output-stream:
(PID.TID 0000.0001) >#  filename(n) : prefix of the output file name (only 8.c long) for outp.stream n
(PID.TID 0000.0001) >#  frequency(n):< 0 : write snap-shot output every |frequency| seconds
(PID.TID 0000.0001) >#               > 0 : write time-average output every frequency seconds
(PID.TID 0000.0001) >#  timePhase(n)     : write at time = timePhase + multiple of |frequency|
(PID.TID 0000.0001) >#  averagingFreq(n) : frequency (in s) for periodic averaging interval
(PID.TID 0000.0001) >#  averagingPhase(n): phase     (in s) for periodic averaging interval
(PID.TID 0000.0001) >#  repeatCycle(n)   : number of averaging intervals in 1 cycle
(PID.TID 0000.0001) >#  levels(:,n) : list of levels to write to file (Notes: declared as REAL)
(PID.TID 0000.0001) >#                 when this entry is missing, select all common levels of this list
(PID.TID 0000.0001) >#  fields(:,n) : list of diagnostics fields (8.c) (see "available_diagnostics.log"
(PID.TID 0000.0001) >#                 file for the list of all available diag. in this particular config)
(PID.TID 0000.0001) >#-----------------
(PID.TID 0000.0001) > &DIAGNOSTICS_LIST
(PID.TID 0000.0001) ># diag_mnc     = .FALSE.,
(PID.TID 0000.0001) ># dumpAtLast   = .TRUE.,
(PID.TID 0000.0001) >  fields(1:6,1) =
(PID.TID 0000.0001) >#       'ETAN    ','oceTAUX ','oceTAUY ',
(PID.TID 0000.0001) >#                 'oceQnet ','oceFWflx','MXLDEPTH',
(PID.TID 0000.0001) >                'SHIfwFlx','SHI_mass','SHIRshel',
(PID.TID 0000.0001) >                 'ETAN    ','SHIuStar','SHIForcT'
(PID.TID 0000.0001) >#                 'SHIuLocM','SHIvLocM','SHIwLocM','SHItLocM','SHIsLocM',
(PID.TID 0000.0001) >#		 'SHItLocB','SHIsLocB'
(PID.TID 0000.0001) >#                'SHIForcT','SHIForcS',
(PID.TID 0000.0001) >#                'surForcT','surForcS','TFLUX   ','SFLUX   ','oceFreez',
(PID.TID 0000.0001) >#                 'TRELAX  ','SRELAX  ',
(PID.TID 0000.0001) >#                'GM_VisbK',
(PID.TID 0000.0001) >#  fields(1,1)='ETAN'
(PID.TID 0000.0001) >   filename(1) = 'surfDiag',
(PID.TID 0000.0001) >   frequency(1) =  86400,
(PID.TID 0000.0001) >   fields(1:5,2) = 'UVEL    ','VVEL    ','WVEL    ',
(PID.TID 0000.0001) >                 'THETA   ','SALT    '
(PID.TID 0000.0001) >   filename(2) = 'dynDiag',
(PID.TID 0000.0001) >  frequency(2) =  2592000.,
(PID.TID 0000.0001) >  fields(1,3) = 'SHIfwFlx'
(PID.TID 0000.0001) >  filename(3) = 'SHICE_fwFluxtave'
(PID.TID 0000.0001) > frequency(3) = 86400
(PID.TID 0000.0001) >  fields(1,4) = 'SHI_mass'
(PID.TID 0000.0001) >  filename(4) = 'SHICE_mass'
(PID.TID 0000.0001) > frequency(4) = -86400
(PID.TID 0000.0001) > timephase(4) = 0
(PID.TID 0000.0001) >#   fields(1:5,3) = 'SI_Uvel ','SI_Vvel ','SI_Thick','SI_hmask','SI_float',
(PID.TID 0000.0001) >#   filename(3) = 'streamice',
(PID.TID 0000.0001) > frequency(3) = 86400
(PID.TID 0000.0001) >#  fields(1,3) = 'EXFpreci','EXFuwind','EXFvwind','EXFtaux ','EXFtauy ',
(PID.TID 0000.0001) >#                'EXFlwdn ','EXFswdn ','EXFatemp','EXFaqh  ','EXFpress',
(PID.TID 0000.0001) >#                'GM_PsiX ','GM_PsiY ',
(PID.TID 0000.0001) >#                'GM_Kwx  ','GM_Kwy  ','GM_Kwz  ',
(PID.TID 0000.0001) >#                'GM_Kux  ','GM_Kvy  ',
(PID.TID 0000.0001) >#                'GM_Kuz  ','GM_Kvz  ',
(PID.TID 0000.0001) >#- disable this output list by commenting out the file name
(PID.TID 0000.0001) >#  filename(3) = 'diagsEXF',
(PID.TID 0000.0001) > frequency(3) = 86400
(PID.TID 0000.0001) >#  fields(1,4) = 'ADVx_TH ','ADVy_TH ','ADVr_TH ',
(PID.TID 0000.0001) >#                'DIFx_TH ','DIFy_TH ','DFrE_TH ',
(PID.TID 0000.0001) >#                'DFrI_TH ',
(PID.TID 0000.0001) >#                'ADVx_SLT',
(PID.TID 0000.0001) >#  filename(4) = 'flxDiag',
(PID.TID 0000.0001) > frequency(4) = -86400
(PID.TID 0000.0001) > /
(PID.TID 0000.0001) >
(PID.TID 0000.0001) ># Parameter for Diagnostics of per level statistics:
(PID.TID 0000.0001) >#-----------------
(PID.TID 0000.0001) ># for each output-stream:
(PID.TID 0000.0001) >#  stat_fname(n) : prefix of the output file name (only 8.c long) for outp.stream n
(PID.TID 0000.0001) >#  stat_freq(n):< 0 : write snap-shot output every |stat_freq| seconds
(PID.TID 0000.0001) >#               > 0 : write time-average output every stat_freq seconds
(PID.TID 0000.0001) >#  stat_phase(n)    : write at time = stat_phase + multiple of |stat_freq|
(PID.TID 0000.0001) >#  stat_region(:,n) : list of "regions" (default: 1 region only=global)
(PID.TID 0000.0001) >#  stat_fields(:,n) : list of diagnostics fields (8.c) (see "available_diagnostics.log"
(PID.TID 0000.0001) >#                 file for the list of all available diag. in this particular config)
(PID.TID 0000.0001) >#-----------------
(PID.TID 0000.0001) > &DIAG_STATIS_PARMS
(PID.TID 0000.0001) >#- regional mask: 3 lat. band: 1 : y <= -24 ; 2 : -24<y<24 ; 3 : 24 <= y
(PID.TID 0000.0001) ># diagSt_regMaskFile='regMask_lat24.bin',
(PID.TID 0000.0001) ># nSetRegMskFile=1,
(PID.TID 0000.0001) ># set_regMask(1)= 1,  1,  1,
(PID.TID 0000.0001) ># val_regMask(1)= 1., 2., 3.,
(PID.TID 0000.0001) >#---
(PID.TID 0000.0001) >#stat_fields(1,1)= 'ETAN    ','UVEL    ','VVEL    ','WVEL    ',
(PID.TID 0000.0001) >#                  'THETA   ','SALT    ','SIarea  ','SIheff  ',
(PID.TID 0000.0001) >#   stat_fname(1)= 'dynStDiag',
(PID.TID 0000.0001) >#    stat_freq(1)= 864000.,
(PID.TID 0000.0001) > /
(PID.TID 0000.0001) >
(PID.TID 0000.0001) 
(PID.TID 0000.0001) S/R DIAGNOSTICS_READPARMS, read namelist "diagnostics_list": start
(PID.TID 0000.0001) S/R DIAGNOSTICS_READPARMS, read namelist "diagnostics_list": OK
(PID.TID 0000.0001) S/R DIAGNOSTICS_READPARMS, read namelist "DIAG_STATIS_PARMS": start
(PID.TID 0000.0001) S/R DIAGNOSTICS_READPARMS, read namelist "DIAG_STATIS_PARMS": OK
(PID.TID 0000.0001)  DIAGNOSTICS_READPARMS: global parameter summary:
(PID.TID 0000.0001)  dumpAtLast = /* always write time-ave diags at the end */
(PID.TID 0000.0001)                   F
(PID.TID 0000.0001)     ;
(PID.TID 0000.0001)  diag_mnc =   /* write NetCDF output files */
(PID.TID 0000.0001)                   F
(PID.TID 0000.0001)     ;
(PID.TID 0000.0001)  useMissingValue = /* put MissingValue where mask = 0 */
(PID.TID 0000.0001)                   F
(PID.TID 0000.0001)     ;
(PID.TID 0000.0001)  diagCG_maxIters = /* max number of iters in diag_cg2d */
(PID.TID 0000.0001)                    1000
(PID.TID 0000.0001)     ;
(PID.TID 0000.0001)  diagCG_resTarget = /* residual target for diag_cg2d */
(PID.TID 0000.0001)                 9.999999999999999E-12
(PID.TID 0000.0001)     ;
(PID.TID 0000.0001)  diagCG_pcOffDFac = /* preconditioner off-diagonal factor */
(PID.TID 0000.0001)                 9.611687812379854E-01
(PID.TID 0000.0001)     ;
(PID.TID 0000.0001) -----------------------------------------------------
(PID.TID 0000.0001)  DIAGNOSTICS_READPARMS: active diagnostics summary:
(PID.TID 0000.0001) -----------------------------------------------------
(PID.TID 0000.0001) Creating Output Stream: surfDiag
(PID.TID 0000.0001) Output Frequency:      86400.000000 ; Phase:           0.000000
(PID.TID 0000.0001)  Averaging Freq.:      86400.000000 , Phase:           0.000000 , Cycle:   1
(PID.TID 0000.0001)  missing value: -9.990000000000E+02
(PID.TID 0000.0001)  Levels:    will be set later
(PID.TID 0000.0001)  Fields:    SHIfwFlx SHI_mass SHIRshel ETAN     SHIuStar SHIForcT
(PID.TID 0000.0001) Creating Output Stream: dynDiag
(PID.TID 0000.0001) Output Frequency:    2592000.000000 ; Phase:           0.000000
(PID.TID 0000.0001)  Averaging Freq.:    2592000.000000 , Phase:           0.000000 , Cycle:   1
(PID.TID 0000.0001)  missing value: -9.990000000000E+02
(PID.TID 0000.0001)  Levels:    will be set later
(PID.TID 0000.0001)  Fields:    UVEL     VVEL     WVEL     THETA    SALT
(PID.TID 0000.0001) Creating Output Stream: SHICE_fwFluxtave
(PID.TID 0000.0001) Output Frequency:      86400.000000 ; Phase:           0.000000
(PID.TID 0000.0001)  Averaging Freq.:      86400.000000 , Phase:           0.000000 , Cycle:   1
(PID.TID 0000.0001)  missing value: -9.990000000000E+02
(PID.TID 0000.0001)  Levels:    will be set later
(PID.TID 0000.0001)  Fields:    SHIfwFlx
(PID.TID 0000.0001) Creating Output Stream: SHICE_mass
(PID.TID 0000.0001) Output Frequency:     -86400.000000 ; Phase:           0.000000
(PID.TID 0000.0001)  Averaging Freq.:          0.000000 , Phase:           0.000000 , Cycle:   1
(PID.TID 0000.0001)  missing value: -9.990000000000E+02
(PID.TID 0000.0001)  Levels:    will be set later
(PID.TID 0000.0001)  Fields:    SHI_mass
(PID.TID 0000.0001) -----------------------------------------------------
(PID.TID 0000.0001)  DIAGNOSTICS_READPARMS: statistics diags. summary:
(PID.TID 0000.0001) -----------------------------------------------------
(PID.TID 0000.0001) 
(PID.TID 0000.0001) SET_PARMS: done
(PID.TID 0000.0001) Enter INI_VERTICAL_GRID: setInterFDr=    T ; setCenterDr=    F
(PID.TID 0000.0001) %MON XC_max                       =   6.0500000000000E+04
(PID.TID 0000.0001) %MON XC_min                       =  -5.0000000000000E+02
(PID.TID 0000.0001) %MON XC_mean                      =   3.0000000000000E+04
(PID.TID 0000.0001) %MON XC_sd                        =   1.7895530168173E+04
(PID.TID 0000.0001) %MON XG_max                       =   6.0000000000000E+04
(PID.TID 0000.0001) %MON XG_min                       =  -1.0000000000000E+03
(PID.TID 0000.0001) %MON XG_mean                      =   2.9500000000000E+04
(PID.TID 0000.0001) %MON XG_sd                        =   1.7895530168173E+04
(PID.TID 0000.0001) %MON DXC_max                      =   1.0000000000000E+03
(PID.TID 0000.0001) %MON DXC_min                      =   1.0000000000000E+03
(PID.TID 0000.0001) %MON DXC_mean                     =   1.0000000000000E+03
(PID.TID 0000.0001) %MON DXC_sd                       =   0.0000000000000E+00
(PID.TID 0000.0001) %MON DXF_max                      =   1.0000000000000E+03
(PID.TID 0000.0001) %MON DXF_min                      =   1.0000000000000E+03
(PID.TID 0000.0001) %MON DXF_mean                     =   1.0000000000000E+03
(PID.TID 0000.0001) %MON DXF_sd                       =   0.0000000000000E+00
(PID.TID 0000.0001) %MON DXG_max                      =   1.0000000000000E+03
(PID.TID 0000.0001) %MON DXG_min                      =   1.0000000000000E+03
(PID.TID 0000.0001) %MON DXG_mean                     =   1.0000000000000E+03
(PID.TID 0000.0001) %MON DXG_sd                       =   0.0000000000000E+00
(PID.TID 0000.0001) %MON DXV_max                      =   1.0000000000000E+03
(PID.TID 0000.0001) %MON DXV_min                      =   1.0000000000000E+03
(PID.TID 0000.0001) %MON DXV_mean                     =   1.0000000000000E+03
(PID.TID 0000.0001) %MON DXV_sd                       =   0.0000000000000E+00
(PID.TID 0000.0001) %MON YC_max                       =   9.9500000000000E+04
(PID.TID 0000.0001) %MON YC_min                       =  -1.5000000000000E+03
(PID.TID 0000.0001) %MON YC_mean                      =   4.9000000000000E+04
(PID.TID 0000.0001) %MON YC_sd                        =   2.9443448620477E+04
(PID.TID 0000.0001) %MON YG_max                       =   9.9000000000000E+04
(PID.TID 0000.0001) %MON YG_min                       =  -2.0000000000000E+03
(PID.TID 0000.0001) %MON YG_mean                      =   4.8500000000000E+04
(PID.TID 0000.0001) %MON YG_sd                        =   2.9443448620477E+04
(PID.TID 0000.0001) %MON DYC_max                      =   1.0000000000000E+03
(PID.TID 0000.0001) %MON DYC_min                      =   1.0000000000000E+03
(PID.TID 0000.0001) %MON DYC_mean                     =   1.0000000000000E+03
(PID.TID 0000.0001) %MON DYC_sd                       =   0.0000000000000E+00
(PID.TID 0000.0001) %MON DYF_max                      =   1.0000000000000E+03
(PID.TID 0000.0001) %MON DYF_min                      =   1.0000000000000E+03
(PID.TID 0000.0001) %MON DYF_mean                     =   1.0000000000000E+03
(PID.TID 0000.0001) %MON DYF_sd                       =   0.0000000000000E+00
(PID.TID 0000.0001) %MON DYG_max                      =   1.0000000000000E+03
(PID.TID 0000.0001) %MON DYG_min                      =   1.0000000000000E+03
(PID.TID 0000.0001) %MON DYG_mean                     =   1.0000000000000E+03
(PID.TID 0000.0001) %MON DYG_sd                       =   0.0000000000000E+00
(PID.TID 0000.0001) %MON DYU_max                      =   1.0000000000000E+03
(PID.TID 0000.0001) %MON DYU_min                      =   1.0000000000000E+03
(PID.TID 0000.0001) %MON DYU_mean                     =   1.0000000000000E+03
(PID.TID 0000.0001) %MON DYU_sd                       =   0.0000000000000E+00
(PID.TID 0000.0001) %MON RA_max                       =   1.0000000000000E+06
(PID.TID 0000.0001) %MON RA_min                       =   1.0000000000000E+06
(PID.TID 0000.0001) %MON RA_mean                      =   1.0000000000000E+06
(PID.TID 0000.0001) %MON RA_sd                        =   0.0000000000000E+00
(PID.TID 0000.0001) %MON RAW_max                      =   1.0000000000000E+06
(PID.TID 0000.0001) %MON RAW_min                      =   1.0000000000000E+06
(PID.TID 0000.0001) %MON RAW_mean                     =   1.0000000000000E+06
(PID.TID 0000.0001) %MON RAW_sd                       =   0.0000000000000E+00
(PID.TID 0000.0001) %MON RAS_max                      =   1.0000000000000E+06
(PID.TID 0000.0001) %MON RAS_min                      =   1.0000000000000E+06
(PID.TID 0000.0001) %MON RAS_mean                     =   1.0000000000000E+06
(PID.TID 0000.0001) %MON RAS_sd                       =   0.0000000000000E+00
(PID.TID 0000.0001) %MON RAZ_max                      =   1.0000000000000E+06
(PID.TID 0000.0001) %MON RAZ_min                      =   1.0000000000000E+06
(PID.TID 0000.0001) %MON RAZ_mean                     =   1.0000000000000E+06
(PID.TID 0000.0001) %MON RAZ_sd                       =   0.0000000000000E+00
(PID.TID 0000.0001) %MON AngleCS_max                  =   1.0000000000000E+00
(PID.TID 0000.0001) %MON AngleCS_min                  =   1.0000000000000E+00
(PID.TID 0000.0001) %MON AngleCS_mean                 =   1.0000000000000E+00
(PID.TID 0000.0001) %MON AngleCS_sd                   =   0.0000000000000E+00
(PID.TID 0000.0001) %MON AngleSN_max                  =   0.0000000000000E+00
(PID.TID 0000.0001) %MON AngleSN_min                  =   0.0000000000000E+00
(PID.TID 0000.0001) %MON AngleSN_mean                 =   0.0000000000000E+00
(PID.TID 0000.0001) %MON AngleSN_sd                   =   0.0000000000000E+00
(PID.TID 0000.0001)  nRecords =   2 ; filePrec =  64 ; fileIter =       864
(PID.TID 0000.0001)     nDims =   2 , dims:
(PID.TID 0000.0001)    1:  62   1  62
(PID.TID 0000.0001)    2: 102   1 102
(PID.TID 0000.0001)     nFlds =   2 , nFl3D =   0 , fields:
(PID.TID 0000.0001)  >SHI_mass< >R_Shelfi<
(PID.TID 0000.0001) missingVal=  1.00000000000000E+00 ; nTimRec =   1 , timeList:
(PID.TID 0000.0001)   8.640000000000E+04
(PID.TID 0000.0001) READ_MFLDS_LEV_RS: read field: "R_Shelfi", #   2 in fldList, rec=   2
(PID.TID 0000.0001) READ_MFLDS_CHECK: - normal end ; reset MFLDS file-name: pickup_shelfice.0000000864
(PID.TID 0000.0001) GAD_INIT_FIXED: GAD_OlMinSize=  2  0  1
(PID.TID 0000.0001) 
(PID.TID 0000.0001) // ===================================
(PID.TID 0000.0001) // GAD parameters :
(PID.TID 0000.0001) // ===================================
(PID.TID 0000.0001) tempAdvScheme =   /* Temp. Horiz.Advection scheme selector */
(PID.TID 0000.0001)                      33
(PID.TID 0000.0001)     ;
(PID.TID 0000.0001) tempVertAdvScheme =   /* Temp. Vert. Advection scheme selector */
(PID.TID 0000.0001)                      33
(PID.TID 0000.0001)     ;
(PID.TID 0000.0001) tempMultiDimAdvec =   /* use Muti-Dim Advec method for Temp */
(PID.TID 0000.0001)                   T
(PID.TID 0000.0001)     ;
(PID.TID 0000.0001) tempSOM_Advection = /* use 2nd Order Moment Advection for Temp */
(PID.TID 0000.0001)                   F
(PID.TID 0000.0001)     ;
(PID.TID 0000.0001) AdamsBashforthGt = /* apply Adams-Bashforth extrapolation on Gt */
(PID.TID 0000.0001)                   F
(PID.TID 0000.0001)     ;
(PID.TID 0000.0001) AdamsBashforth_T = /* apply Adams-Bashforth extrapolation on Temp */
(PID.TID 0000.0001)                   F
(PID.TID 0000.0001)     ;
(PID.TID 0000.0001) saltAdvScheme =   /* Salt. Horiz.advection scheme selector */
(PID.TID 0000.0001)                      33
(PID.TID 0000.0001)     ;
(PID.TID 0000.0001) saltVertAdvScheme =   /* Salt. Vert. Advection scheme selector */
(PID.TID 0000.0001)                      33
(PID.TID 0000.0001)     ;
(PID.TID 0000.0001) saltMultiDimAdvec =   /* use Muti-Dim Advec method for Salt */
(PID.TID 0000.0001)                   T
(PID.TID 0000.0001)     ;
(PID.TID 0000.0001) saltSOM_Advection = /* use 2nd Order Moment Advection for Salt */
(PID.TID 0000.0001)                   F
(PID.TID 0000.0001)     ;
(PID.TID 0000.0001) AdamsBashforthGs = /* apply Adams-Bashforth extrapolation on Gs */
(PID.TID 0000.0001)                   F
(PID.TID 0000.0001)     ;
(PID.TID 0000.0001) AdamsBashforth_S = /* apply Adams-Bashforth extrapolation on Salt */
(PID.TID 0000.0001)                   F
(PID.TID 0000.0001)     ;
(PID.TID 0000.0001) // ===================================
(PID.TID 0000.0001) ------------------------------------------------------------
(PID.TID 0000.0001) DIAGNOSTICS_SET_LEVELS: done
(PID.TID 0000.0001)  Total Nb of available Diagnostics: ndiagt=   204
(PID.TID 0000.0001)  write list of available Diagnostics to file: available_diagnostics.log
(PID.TID 0000.0001) SETDIAG: Allocate  1 x  1 Levels for Diagnostic #   194 SHIfwFlx
(PID.TID 0000.0001) SETDIAG: Allocate  1 x  1 Levels for Diagnostic #   203 SHI_mass
(PID.TID 0000.0001) SETDIAG: Allocate  1 x  1 Levels for Diagnostic #   204 SHIRshel
(PID.TID 0000.0001) SETDIAG: Allocate  1 x  1 Levels for Diagnostic #    23 ETAN
(PID.TID 0000.0001) SETDIAG: Allocate  1 x  1 Levels for Diagnostic #   202 SHIuStar
(PID.TID 0000.0001) SETDIAG: Allocate  1 x  1 Levels for Diagnostic #   198 SHIForcT
(PID.TID 0000.0001) SETDIAG: Allocate 55 x  1 Levels for Diagnostic #    30 UVEL
(PID.TID 0000.0001) SETDIAG: Allocate 55 x  1 Levels for Diagnostic #    31 VVEL
(PID.TID 0000.0001) SETDIAG: Allocate 55 x  1 Levels for Diagnostic #    32 WVEL
(PID.TID 0000.0001) SETDIAG: Allocate 55 x  1 Levels for Diagnostic #    26 THETA
(PID.TID 0000.0001) SETDIAG: Allocate 55 x  1 Levels for Diagnostic #    27 SALT
(PID.TID 0000.0001) - NOTE - SETDIAG:  Diagnostic  #   194 SHIfwFlx is already set
(PID.TID 0000.0001) SETDIAG: Allocate  1 x  1 Levels for Diagnostic #   203 SHI_mass
(PID.TID 0000.0001)   space allocated for all diagnostics:     282 levels
(PID.TID 0000.0001)   set mate pointer for diag #    30  UVEL     , Parms: UUR     MR , mate:    31
(PID.TID 0000.0001)   set mate pointer for diag #    31  VVEL     , Parms: VVR     MR , mate:    30
(PID.TID 0000.0001) DIAGNOSTICS_SET_POINTERS: Set levels for Outp.Stream: surfDiag
(PID.TID 0000.0001)  Levels:       1.
(PID.TID 0000.0001) DIAGNOSTICS_SET_POINTERS: Set levels for Outp.Stream: dynDiag
(PID.TID 0000.0001)  Levels:       1.   2.   3.   4.   5.   6.   7.   8.   9.  10.  11.  12.  13.  14.  15.  16.  17.  18.  19.  20.
(PID.TID 0000.0001)  Levels:      21.  22.  23.  24.  25.  26.  27.  28.  29.  30.  31.  32.  33.  34.  35.  36.  37.  38.  39.  40.
(PID.TID 0000.0001)  Levels:      41.  42.  43.  44.  45.  46.  47.  48.  49.  50.  51.  52.  53.  54.  55.
(PID.TID 0000.0001) DIAGNOSTICS_SET_POINTERS: Set levels for Outp.Stream: SHICE_fwFluxtave
(PID.TID 0000.0001)  Levels:       1.
(PID.TID 0000.0001) DIAGNOSTICS_SET_POINTERS: Set levels for Outp.Stream: SHICE_mass
(PID.TID 0000.0001)  Levels:       1.
(PID.TID 0000.0001) DIAGNOSTICS_SET_POINTERS: done
(PID.TID 0000.0001) ------------------------------------------------------------
(PID.TID 0000.0001) DIAGSTATS_SET_REGIONS: define no region
(PID.TID 0000.0001) ------------------------------------------------------------
(PID.TID 0000.0001)   space allocated for all stats-diags:       0 levels
(PID.TID 0000.0001) DIAGSTATS_SET_POINTERS: done
(PID.TID 0000.0001) ------------------------------------------------------------
(PID.TID 0000.0001) %MON fCori_max                    =  -1.0000000000000E-04
(PID.TID 0000.0001) %MON fCori_min                    =  -1.0000000000000E-04
(PID.TID 0000.0001) %MON fCori_mean                   =  -1.0000000000000E-04
(PID.TID 0000.0001) %MON fCori_sd                     =   9.2157184661268E-19
(PID.TID 0000.0001) %MON fCoriG_max                   =  -1.0000000000000E-04
(PID.TID 0000.0001) %MON fCoriG_min                   =  -1.0000000000000E-04
(PID.TID 0000.0001) %MON fCoriG_mean                  =  -1.0000000000000E-04
(PID.TID 0000.0001) %MON fCoriG_sd                    =   9.2157184661268E-19
(PID.TID 0000.0001) %MON fCoriCos_max                 =   0.0000000000000E+00
(PID.TID 0000.0001) %MON fCoriCos_min                 =   0.0000000000000E+00
(PID.TID 0000.0001) %MON fCoriCos_mean                =   0.0000000000000E+00
(PID.TID 0000.0001) %MON fCoriCos_sd                  =   0.0000000000000E+00
(PID.TID 0000.0001) INI_CG2D: CG2D normalisation factor =  9.0909090909090909E-04
(PID.TID 0000.0001) 
(PID.TID 0000.0001) // =======================================================
(PID.TID 0000.0001) // Model configuration
(PID.TID 0000.0001) // =======================================================
(PID.TID 0000.0001) //
(PID.TID 0000.0001) // "Physical" paramters ( PARM01 in namelist )
(PID.TID 0000.0001) //
(PID.TID 0000.0001) buoyancyRelation = /* Type of relation to get Buoyancy */
(PID.TID 0000.0001)               'OCEANIC'
(PID.TID 0000.0001)     ;
(PID.TID 0000.0001) fluidIsAir   =  /* fluid major constituent is Air */
(PID.TID 0000.0001)                   F
(PID.TID 0000.0001)     ;
(PID.TID 0000.0001) fluidIsWater =  /* fluid major constituent is Water */
(PID.TID 0000.0001)                   T
(PID.TID 0000.0001)     ;
(PID.TID 0000.0001) usingPCoords =  /* use p (or p*) vertical coordinate */
(PID.TID 0000.0001)                   F
(PID.TID 0000.0001)     ;
(PID.TID 0000.0001) usingZCoords =  /* use z (or z*) vertical coordinate */
(PID.TID 0000.0001)                   T
(PID.TID 0000.0001)     ;
(PID.TID 0000.0001) tRef =   /* Reference temperature profile ( oC or K ) */
(PID.TID 0000.0001)    55 @ -1.900000000000000E+00              /* K =  1: 55 */
(PID.TID 0000.0001)     ;
(PID.TID 0000.0001) sRef =   /* Reference salinity profile ( psu ) */
(PID.TID 0000.0001)    55 @  3.440000000000000E+01              /* K =  1: 55 */
(PID.TID 0000.0001)     ;
(PID.TID 0000.0001) useStrainTensionVisc= /* Use StrainTension Form of Viscous Operator */
(PID.TID 0000.0001)                   F
(PID.TID 0000.0001)     ;
(PID.TID 0000.0001) useVariableVisc = /* Use variable horizontal viscosity */
(PID.TID 0000.0001)                   F
(PID.TID 0000.0001)     ;
(PID.TID 0000.0001) useHarmonicVisc = /* Use harmonic horizontal viscosity */
(PID.TID 0000.0001)                   T
(PID.TID 0000.0001)     ;
(PID.TID 0000.0001) useBiharmonicVisc= /* Use biharmonic horiz.  viscosity */
(PID.TID 0000.0001)                   F
(PID.TID 0000.0001)     ;
(PID.TID 0000.0001) useSmag3D = /* Use isotropic 3-D Smagorinsky viscosity */
(PID.TID 0000.0001)                   F
(PID.TID 0000.0001)     ;
(PID.TID 0000.0001) viscAh  =   /* Lateral harmonic viscosity ( m^2/s ) */
(PID.TID 0000.0001)                 1.000000000000000E+01
(PID.TID 0000.0001)     ;
(PID.TID 0000.0001) viscA4  =   /* Lateral biharmonic viscosity ( m^4/s ) */
(PID.TID 0000.0001)                 0.000000000000000E+00
(PID.TID 0000.0001)     ;
(PID.TID 0000.0001) no_slip_sides =  /* Viscous BCs: No-slip sides */
(PID.TID 0000.0001)                   F
(PID.TID 0000.0001)     ;
(PID.TID 0000.0001) sideDragFactor = /* side-drag scaling factor (non-dim) */
(PID.TID 0000.0001)                 2.000000000000000E+00
(PID.TID 0000.0001)     ;
(PID.TID 0000.0001) viscArNr = /* vertical profile of vertical viscosity ( m^2/s )*/
(PID.TID 0000.0001)    55 @  1.000000000000000E-03              /* K =  1: 55 */
(PID.TID 0000.0001)     ;
(PID.TID 0000.0001) no_slip_bottom =  /* Viscous BCs: No-slip bottom */
(PID.TID 0000.0001)                   F
(PID.TID 0000.0001)     ;
(PID.TID 0000.0001) bottomVisc_pCell = /* Partial-cell in bottom Visc. BC */
(PID.TID 0000.0001)                   F
(PID.TID 0000.0001)     ;
(PID.TID 0000.0001) bottomDragLinear = /* linear bottom-drag coefficient ( m/s ) */
(PID.TID 0000.0001)                 0.000000000000000E+00
(PID.TID 0000.0001)     ;
(PID.TID 0000.0001) bottomDragQuadratic = /* quadratic bottom-drag coefficient (-) */
(PID.TID 0000.0001)                 2.500000000000000E-03
(PID.TID 0000.0001)     ;
(PID.TID 0000.0001) selectBotDragQuadr = /* select quadratic bottom drag options */
(PID.TID 0000.0001)                       0
(PID.TID 0000.0001)     ;
(PID.TID 0000.0001) diffKhT =   /* Laplacian diffusion of heat laterally ( m^2/s ) */
(PID.TID 0000.0001)                 1.000000000000000E+01
(PID.TID 0000.0001)     ;
(PID.TID 0000.0001) diffK4T =   /* Biharmonic diffusion of heat laterally ( m^4/s ) */
(PID.TID 0000.0001)                 0.000000000000000E+00
(PID.TID 0000.0001)     ;
(PID.TID 0000.0001) diffKhS =   /* Laplacian diffusion of salt laterally ( m^2/s ) */
(PID.TID 0000.0001)                 1.000000000000000E+01
(PID.TID 0000.0001)     ;
(PID.TID 0000.0001) diffK4S =   /* Biharmonic diffusion of salt laterally ( m^4/s ) */
(PID.TID 0000.0001)                 0.000000000000000E+00
(PID.TID 0000.0001)     ;
(PID.TID 0000.0001) diffKrNrT = /* vertical profile of vertical diffusion of Temp ( m^2/s )*/
(PID.TID 0000.0001)    55 @  5.000000000000000E-05              /* K =  1: 55 */
(PID.TID 0000.0001)     ;
(PID.TID 0000.0001) diffKrNrS = /* vertical profile of vertical diffusion of Salt ( m^2/s )*/
(PID.TID 0000.0001)    55 @  5.000000000000000E-05              /* K =  1: 55 */
(PID.TID 0000.0001)     ;
(PID.TID 0000.0001) diffKrBL79surf = /* Surface diffusion for Bryan and Lewis 79 ( m^2/s ) */
(PID.TID 0000.0001)                 0.000000000000000E+00
(PID.TID 0000.0001)     ;
(PID.TID 0000.0001) diffKrBL79deep = /* Deep diffusion for Bryan and Lewis 1979 ( m^2/s ) */
(PID.TID 0000.0001)                 0.000000000000000E+00
(PID.TID 0000.0001)     ;
(PID.TID 0000.0001) diffKrBL79scl = /* Depth scale for Bryan and Lewis 1979 ( m ) */
(PID.TID 0000.0001)                 2.000000000000000E+02
(PID.TID 0000.0001)     ;
(PID.TID 0000.0001) diffKrBL79Ho = /* Turning depth for Bryan and Lewis 1979 ( m ) */
(PID.TID 0000.0001)                -2.000000000000000E+03
(PID.TID 0000.0001)     ;
(PID.TID 0000.0001) ivdc_kappa = /* Implicit Vertical Diffusivity for Convection ( m^2/s) */
(PID.TID 0000.0001)                 0.000000000000000E+00
(PID.TID 0000.0001)     ;
(PID.TID 0000.0001) hMixCriteria=  /* Criteria for mixed-layer diagnostic */
(PID.TID 0000.0001)                -8.000000000000000E-01
(PID.TID 0000.0001)     ;
(PID.TID 0000.0001) dRhoSmall =  /* Parameter for mixed-layer diagnostic */
(PID.TID 0000.0001)                 1.000000000000000E-06
(PID.TID 0000.0001)     ;
(PID.TID 0000.0001) hMixSmooth=  /* Smoothing parameter for mixed-layer diagnostic */
(PID.TID 0000.0001)                 0.000000000000000E+00
(PID.TID 0000.0001)     ;
(PID.TID 0000.0001) eosType =  /* Type of Equation of State */
(PID.TID 0000.0001)               'JMD95Z'
(PID.TID 0000.0001)     ;
(PID.TID 0000.0001) eosRefP0 = /* Reference atmospheric pressure for EOS ( Pa ) */
(PID.TID 0000.0001)                 1.013250000000000E+05
(PID.TID 0000.0001)     ;
(PID.TID 0000.0001) selectP_inEOS_Zc = /* select pressure to use in EOS (0,1,2,3) */
(PID.TID 0000.0001)                       0
(PID.TID 0000.0001)     0= -g*rhoConst*z ; 1= pRef (from tRef,sRef); 2= Hyd P ; 3= Hyd+NH P
(PID.TID 0000.0001)     ;
(PID.TID 0000.0001) surf_pRef = /* Surface reference pressure ( Pa ) */
(PID.TID 0000.0001)                 1.013250000000000E+05
(PID.TID 0000.0001)     ;
(PID.TID 0000.0001) HeatCapacity_Cp =  /* Specific heat capacity ( J/kg/K ) */
(PID.TID 0000.0001)                 3.974000000000000E+03
(PID.TID 0000.0001)     ;
(PID.TID 0000.0001) celsius2K = /* 0 degree Celsius converted to Kelvin ( K ) */
(PID.TID 0000.0001)                 2.731500000000000E+02
(PID.TID 0000.0001)     ;
(PID.TID 0000.0001) rhoConst  = /* Reference density (Boussinesq)  ( kg/m^3 ) */
(PID.TID 0000.0001)                 1.000000000000000E+03
(PID.TID 0000.0001)     ;
(PID.TID 0000.0001) rhoFacC = /* normalized Reference density @ cell-Center (-) */
(PID.TID 0000.0001)    55 @  1.000000000000000E+00              /* K =  1: 55 */
(PID.TID 0000.0001)     ;
(PID.TID 0000.0001) rhoFacF = /* normalized Reference density @ W-Interface (-) */
(PID.TID 0000.0001)    56 @  1.000000000000000E+00              /* K =  1: 56 */
(PID.TID 0000.0001)     ;
(PID.TID 0000.0001) rhoConstFresh = /* Fresh-water reference density ( kg/m^3 ) */
(PID.TID 0000.0001)                 1.000000000000000E+03
(PID.TID 0000.0001)     ;
(PID.TID 0000.0001) gravity =   /* Gravitational acceleration ( m/s^2 ) */
(PID.TID 0000.0001)                 9.810000000000000E+00
(PID.TID 0000.0001)     ;
(PID.TID 0000.0001) gBaro =   /* Barotropic gravity ( m/s^2 ) */
(PID.TID 0000.0001)                 9.810000000000000E+00
(PID.TID 0000.0001)     ;
(PID.TID 0000.0001) gravFacC = /* gravity factor (vs surf.) @ cell-Center (-) */
(PID.TID 0000.0001)    55 @  1.000000000000000E+00              /* K =  1: 55 */
(PID.TID 0000.0001)     ;
(PID.TID 0000.0001) gravFacF = /* gravity factor (vs surf.) @ W-Interface (-) */
(PID.TID 0000.0001)    56 @  1.000000000000000E+00              /* K =  1: 56 */
(PID.TID 0000.0001)     ;
(PID.TID 0000.0001) rotationPeriod =   /* Rotation Period ( s ) */
(PID.TID 0000.0001)                 8.616400000000000E+04
(PID.TID 0000.0001)     ;
(PID.TID 0000.0001) omega =   /* Angular velocity ( rad/s ) */
(PID.TID 0000.0001)                 7.292123516990375E-05
(PID.TID 0000.0001)     ;
(PID.TID 0000.0001) f0 =   /* Reference coriolis parameter ( 1/s ) */
(PID.TID 0000.0001)                -1.000000000000000E-04
(PID.TID 0000.0001)     ;
(PID.TID 0000.0001) beta =   /* Beta ( 1/(m.s) ) */
(PID.TID 0000.0001)                 9.999999999999999E-12
(PID.TID 0000.0001)     ;
(PID.TID 0000.0001) fPrime =   /* Second coriolis parameter ( 1/s ) */
(PID.TID 0000.0001)                 0.000000000000000E+00
(PID.TID 0000.0001)     ;
(PID.TID 0000.0001) rigidLid =   /* Rigid lid on/off flag */
(PID.TID 0000.0001)                   F
(PID.TID 0000.0001)     ;
(PID.TID 0000.0001) implicitFreeSurface =   /* Implicit free surface on/off flag */
(PID.TID 0000.0001)                   T
(PID.TID 0000.0001)     ;
(PID.TID 0000.0001) freeSurfFac =   /* Implicit free surface factor */
(PID.TID 0000.0001)                 1.000000000000000E+00
(PID.TID 0000.0001)     ;
(PID.TID 0000.0001) implicSurfPress =  /* Surface Pressure implicit factor (0-1)*/
(PID.TID 0000.0001)                 1.000000000000000E+00
(PID.TID 0000.0001)     ;
(PID.TID 0000.0001) implicDiv2DFlow =  /* Barot. Flow Div. implicit factor (0-1)*/
(PID.TID 0000.0001)                 1.000000000000000E+00
(PID.TID 0000.0001)     ;
(PID.TID 0000.0001) uniformLin_PhiSurf = /* use uniform Bo_surf on/off flag*/
(PID.TID 0000.0001)                   T
(PID.TID 0000.0001)     ;
(PID.TID 0000.0001) uniformFreeSurfLev = /* free-surface level-index is uniform */
(PID.TID 0000.0001)                   F
(PID.TID 0000.0001)     ;
(PID.TID 0000.0001) hFacMin =   /* minimum partial cell factor (hFac) */
(PID.TID 0000.0001)                 2.000000000000000E-01
(PID.TID 0000.0001)     ;
(PID.TID 0000.0001) hFacMinDr = /* minimum partial cell thickness ( m) */
(PID.TID 0000.0001)                 0.000000000000000E+00
(PID.TID 0000.0001)     ;
(PID.TID 0000.0001) exactConserv =  /* Exact Volume Conservation on/off flag*/
(PID.TID 0000.0001)                   T
(PID.TID 0000.0001)     ;
(PID.TID 0000.0001) linFSConserveTr = /* Tracer correction for Lin Free Surface on/off flag*/
(PID.TID 0000.0001)                   F
(PID.TID 0000.0001)     ;
(PID.TID 0000.0001) nonlinFreeSurf = /* Non-linear Free Surf. options (-1,0,1,2,3)*/
(PID.TID 0000.0001)                       4
(PID.TID 0000.0001)      -1,0= Off ; 1,2,3= On, 2=+rescale gU,gV, 3=+update cg2d solv.
(PID.TID 0000.0001)     ;
(PID.TID 0000.0001) hFacInf =   /* lower threshold for hFac (nonlinFreeSurf only)*/
(PID.TID 0000.0001)                 2.000000000000000E-01
(PID.TID 0000.0001)     ;
(PID.TID 0000.0001) hFacSup =   /* upper threshold for hFac (nonlinFreeSurf only)*/
(PID.TID 0000.0001)                 2.000000000000000E+00
(PID.TID 0000.0001)     ;
(PID.TID 0000.0001) select_rStar = /* r* Vertical coord. options (=0 r coord.; >0 uses r*)*/
(PID.TID 0000.0001)                       0
(PID.TID 0000.0001)     ;
(PID.TID 0000.0001) useRealFreshWaterFlux = /* Real Fresh Water Flux on/off flag*/
(PID.TID 0000.0001)                   T
(PID.TID 0000.0001)     ;
(PID.TID 0000.0001) temp_EvPrRn = /* Temp. of Evap/Prec/R (UNSET=use local T)(oC)*/
(PID.TID 0000.0001)                 1.234567000000000E+05
(PID.TID 0000.0001)     ;
(PID.TID 0000.0001) salt_EvPrRn = /* Salin. of Evap/Prec/R (UNSET=use local S)(psu)*/
(PID.TID 0000.0001)                 0.000000000000000E+00
(PID.TID 0000.0001)     ;
(PID.TID 0000.0001) selectAddFluid = /* option for mass source/sink of fluid (=0: off) */
(PID.TID 0000.0001)                       0
(PID.TID 0000.0001)     ;
(PID.TID 0000.0001) temp_addMass = /* Temp. of addMass array (UNSET=use local T)(oC)*/
(PID.TID 0000.0001)                 1.234567000000000E+05
(PID.TID 0000.0001)     ;
(PID.TID 0000.0001) salt_addMass = /* Salin. of addMass array (UNSET=use local S)(psu)*/
(PID.TID 0000.0001)                 0.000000000000000E+00
(PID.TID 0000.0001)     ;
(PID.TID 0000.0001) use3Dsolver = /* use 3-D pressure solver on/off flag */
(PID.TID 0000.0001)                   F
(PID.TID 0000.0001)     ;
(PID.TID 0000.0001) nonHydrostatic =  /* Non-Hydrostatic on/off flag */
(PID.TID 0000.0001)                   F
(PID.TID 0000.0001)     ;
(PID.TID 0000.0001) nh_Am2 = /* Non-Hydrostatic terms scaling factor */
(PID.TID 0000.0001)                 1.000000000000000E+00
(PID.TID 0000.0001)     ;
(PID.TID 0000.0001) implicitNHPress = /* Non-Hyd Pressure implicit factor (0-1)*/
(PID.TID 0000.0001)                 1.000000000000000E+00
(PID.TID 0000.0001)     ;
(PID.TID 0000.0001) selectNHfreeSurf = /* Non-Hyd (free-)Surface option */
(PID.TID 0000.0001)                       0
(PID.TID 0000.0001)     ;
(PID.TID 0000.0001) quasiHydrostatic = /* Quasi-Hydrostatic on/off flag */
(PID.TID 0000.0001)                   F
(PID.TID 0000.0001)     ;
(PID.TID 0000.0001) calc_wVelocity = /* vertical velocity calculation on/off flag */
(PID.TID 0000.0001)                   T
(PID.TID 0000.0001)     ;
(PID.TID 0000.0001) momStepping =  /* Momentum equation on/off flag */
(PID.TID 0000.0001)                   T
(PID.TID 0000.0001)     ;
(PID.TID 0000.0001) vectorInvariantMomentum= /* Vector-Invariant Momentum on/off */
(PID.TID 0000.0001)                   F
(PID.TID 0000.0001)     ;
(PID.TID 0000.0001) momAdvection =  /* Momentum advection on/off flag */
(PID.TID 0000.0001)                   T
(PID.TID 0000.0001)     ;
(PID.TID 0000.0001) momViscosity =  /* Momentum viscosity on/off flag */
(PID.TID 0000.0001)                   T
(PID.TID 0000.0001)     ;
(PID.TID 0000.0001) momImplVertAdv= /* Momentum implicit vert. advection on/off*/
(PID.TID 0000.0001)                   F
(PID.TID 0000.0001)     ;
(PID.TID 0000.0001) implicitViscosity = /* Implicit viscosity on/off flag */
(PID.TID 0000.0001)                   F
(PID.TID 0000.0001)     ;
(PID.TID 0000.0001) selectImplicitDrag= /* Implicit bot Drag options (0,1,2)*/
(PID.TID 0000.0001)                       0
(PID.TID 0000.0001)     0= Expl. ; 1= Impl. on provis. Vel ; 2= Fully Impl (with surf.P)
(PID.TID 0000.0001)     ;
(PID.TID 0000.0001) metricTerms =  /* metric-Terms on/off flag */
(PID.TID 0000.0001)                   F
(PID.TID 0000.0001)     ;
(PID.TID 0000.0001) useNHMTerms = /* Non-Hydrostatic Metric-Terms on/off */
(PID.TID 0000.0001)                   F
(PID.TID 0000.0001)     ;
(PID.TID 0000.0001) selectCoriMap = /* Coriolis Map options (0,1,2,3)*/
(PID.TID 0000.0001)                       0
(PID.TID 0000.0001)     0= f-Plane ; 1= Beta-Plane ; 2= Spherical ; 3= read from file
(PID.TID 0000.0001)     ;
(PID.TID 0000.0001) use3dCoriolis = /* 3-D Coriolis on/off flag */
(PID.TID 0000.0001)                   F
(PID.TID 0000.0001)     ;
(PID.TID 0000.0001) useCoriolis =  /* Coriolis on/off flag */
(PID.TID 0000.0001)                   T
(PID.TID 0000.0001)     ;
(PID.TID 0000.0001) useCDscheme =  /* CD scheme on/off flag */
(PID.TID 0000.0001)                   F
(PID.TID 0000.0001)     ;
(PID.TID 0000.0001) selectCoriScheme= /* Scheme selector for Coriolis-Term */
(PID.TID 0000.0001)                       0
(PID.TID 0000.0001)    = 0 : original discretization (simple averaging, no hFac)
(PID.TID 0000.0001)    = 1 : Wet-point averaging (Jamar & Ozer 1986)
(PID.TID 0000.0001)    = 2 : energy conserving scheme (no hFac weight)
(PID.TID 0000.0001)    = 3 : energy conserving scheme using Wet-point averaging
(PID.TID 0000.0001)     ;
(PID.TID 0000.0001) momForcing =  /* Momentum forcing on/off flag */
(PID.TID 0000.0001)                   T
(PID.TID 0000.0001)     ;
(PID.TID 0000.0001) momTidalForcing = /* Momentum Tidal forcing on/off flag */
(PID.TID 0000.0001)                   T
(PID.TID 0000.0001)     ;
(PID.TID 0000.0001) momPressureForcing =  /* Momentum pressure term on/off flag */
(PID.TID 0000.0001)                   T
(PID.TID 0000.0001)     ;
(PID.TID 0000.0001) implicitIntGravWave= /* Implicit Internal Gravity Wave flag */
(PID.TID 0000.0001)                   F
(PID.TID 0000.0001)     ;
(PID.TID 0000.0001) staggerTimeStep =    /* Stagger time stepping on/off flag */
(PID.TID 0000.0001)                   T
(PID.TID 0000.0001)     ;
(PID.TID 0000.0001) doResetHFactors = /* reset thickness factors @ each time-step */
(PID.TID 0000.0001)                   F
(PID.TID 0000.0001)     ;
(PID.TID 0000.0001) multiDimAdvection =  /* enable/disable Multi-Dim Advection */
(PID.TID 0000.0001)                   T
(PID.TID 0000.0001)     ;
(PID.TID 0000.0001) useMultiDimAdvec =   /* Multi-Dim Advection is/is-not used */
(PID.TID 0000.0001)                   T
(PID.TID 0000.0001)     ;
(PID.TID 0000.0001) implicitDiffusion = /* Implicit Diffusion on/off flag */
(PID.TID 0000.0001)                   F
(PID.TID 0000.0001)     ;
(PID.TID 0000.0001) tempStepping =  /* Temperature equation on/off flag */
(PID.TID 0000.0001)                   T
(PID.TID 0000.0001)     ;
(PID.TID 0000.0001) tempAdvection = /* Temperature advection on/off flag */
(PID.TID 0000.0001)                   T
(PID.TID 0000.0001)     ;
(PID.TID 0000.0001) tempImplVertAdv = /* Temp. implicit vert. advection on/off */
(PID.TID 0000.0001)                   F
(PID.TID 0000.0001)     ;
(PID.TID 0000.0001) tempForcing  =  /* Temperature forcing on/off flag */
(PID.TID 0000.0001)                   T
(PID.TID 0000.0001)     ;
(PID.TID 0000.0001) doThetaClimRelax = /* apply SST relaxation on/off flag */
(PID.TID 0000.0001)                   F
(PID.TID 0000.0001)     ;
(PID.TID 0000.0001) tempIsActiveTr = /* Temp. is a dynamically Active Tracer */
(PID.TID 0000.0001)                   T
(PID.TID 0000.0001)     ;
(PID.TID 0000.0001) saltStepping =  /* Salinity equation on/off flag */
(PID.TID 0000.0001)                   T
(PID.TID 0000.0001)     ;
(PID.TID 0000.0001) saltAdvection = /* Salinity advection on/off flag */
(PID.TID 0000.0001)                   T
(PID.TID 0000.0001)     ;
(PID.TID 0000.0001) saltImplVertAdv = /* Sali. implicit vert. advection on/off */
(PID.TID 0000.0001)                   F
(PID.TID 0000.0001)     ;
(PID.TID 0000.0001) saltForcing  =  /* Salinity forcing on/off flag */
(PID.TID 0000.0001)                   T
(PID.TID 0000.0001)     ;
(PID.TID 0000.0001) doSaltClimRelax = /* apply SSS relaxation on/off flag */
(PID.TID 0000.0001)                   F
(PID.TID 0000.0001)     ;
(PID.TID 0000.0001) saltIsActiveTr = /* Salt  is a dynamically Active Tracer */
(PID.TID 0000.0001)                   T
(PID.TID 0000.0001)     ;
(PID.TID 0000.0001)  readBinaryPrec = /* Precision used for reading binary files */
(PID.TID 0000.0001)                      64
(PID.TID 0000.0001)     ;
(PID.TID 0000.0001) writeBinaryPrec = /* Precision used for writing binary files */
(PID.TID 0000.0001)                      32
(PID.TID 0000.0001)     ;
(PID.TID 0000.0001)  rwSuffixType =   /* select format of mds file suffix */
(PID.TID 0000.0001)                       0
(PID.TID 0000.0001)    = 0 : myIter (I10.10) ;   = 1 : 100*myTime (100th sec) ;
(PID.TID 0000.0001)    = 2 : myTime (seconds);   = 3 : myTime/360 (10th of hr);
(PID.TID 0000.0001)    = 4 : myTime/3600 (hours)
(PID.TID 0000.0001)     ;
(PID.TID 0000.0001)  globalFiles = /* write "global" (=not per tile) files */
(PID.TID 0000.0001)                   T
(PID.TID 0000.0001)     ;
(PID.TID 0000.0001)  useSingleCpuIO = /* only master MPI process does I/O */
(PID.TID 0000.0001)                   T
(PID.TID 0000.0001)     ;
(PID.TID 0000.0001)  useSingleCpuInput = /* only master process reads input */
(PID.TID 0000.0001)                   T
(PID.TID 0000.0001)     ;
(PID.TID 0000.0001) /* debLev[*]  : level of debug & auxiliary message printing */
(PID.TID 0000.0001) debLevZero =  0 ; /* level of disabled aux. msg printing */
(PID.TID 0000.0001)    debLevA =  1 ; /* level of minimum  aux. msg printing */
(PID.TID 0000.0001)    debLevB =  2 ; /* level of low aux. print (report read-file opening)*/
(PID.TID 0000.0001)    debLevC =  3 ; /* level of moderate debug prt (most pkgs debug msg) */
(PID.TID 0000.0001)    debLevD =  4 ; /* level of enhanced debug prt (add DEBUG_STATS prt) */
(PID.TID 0000.0001)    debLevE =  5 ; /* level of extensive debug printing */
(PID.TID 0000.0001) debugLevel =  /* select debug printing level */
(PID.TID 0000.0001)                       1
(PID.TID 0000.0001)     ;
(PID.TID 0000.0001)  plotLevel =  /* select PLOT_FIELD printing level */
(PID.TID 0000.0001)                       1
(PID.TID 0000.0001)     ;
(PID.TID 0000.0001) //
(PID.TID 0000.0001) // Elliptic solver(s) paramters ( PARM02 in namelist )
(PID.TID 0000.0001) //
(PID.TID 0000.0001) cg2dMaxIters =   /* Upper limit on 2d con. grad iterations  */
(PID.TID 0000.0001)                    1000
(PID.TID 0000.0001)     ;
(PID.TID 0000.0001) cg2dChkResFreq =   /* 2d con. grad convergence test frequency */
(PID.TID 0000.0001)                       1
(PID.TID 0000.0001)     ;
(PID.TID 0000.0001) cg2dUseMinResSol= /* use cg2d last-iter(=0) / min-resid.(=1) solution */
(PID.TID 0000.0001)                       0
(PID.TID 0000.0001)     ;
(PID.TID 0000.0001) cg2dTargetResidual =   /* 2d con. grad target residual  */
(PID.TID 0000.0001)                 9.999999999999999E-12
(PID.TID 0000.0001)     ;
(PID.TID 0000.0001) cg2dTargetResWunit =   /* CG2d target residual [W units] */
(PID.TID 0000.0001)                -1.000000000000000E+00
(PID.TID 0000.0001)     ;
(PID.TID 0000.0001) cg2dPreCondFreq =   /* Freq. for updating cg2d preconditioner */
(PID.TID 0000.0001)                       1
(PID.TID 0000.0001)     ;
(PID.TID 0000.0001) useSRCGSolver =  /* use single reduction CG solver(s) */
(PID.TID 0000.0001)                   F
(PID.TID 0000.0001)     ;
(PID.TID 0000.0001) printResidualFreq = /* Freq. for printing CG residual */
(PID.TID 0000.0001)                       0
(PID.TID 0000.0001)     ;
(PID.TID 0000.0001) //
(PID.TID 0000.0001) // Time stepping paramters ( PARM03 in namelist )
(PID.TID 0000.0001) //
(PID.TID 0000.0001) deltaTMom =   /* Momentum equation timestep ( s ) */
(PID.TID 0000.0001)                 1.000000000000000E+02
(PID.TID 0000.0001)     ;
(PID.TID 0000.0001) deltaTFreeSurf = /* FreeSurface equation timestep ( s ) */
(PID.TID 0000.0001)                 1.000000000000000E+02
(PID.TID 0000.0001)     ;
(PID.TID 0000.0001) dTtracerLev =  /* Tracer equation timestep ( s ) */
(PID.TID 0000.0001)    55 @  1.000000000000000E+02              /* K =  1: 55 */
(PID.TID 0000.0001)     ;
(PID.TID 0000.0001) deltaTClock  =   /* Model clock timestep ( s ) */
(PID.TID 0000.0001)                 1.000000000000000E+02
(PID.TID 0000.0001)     ;
(PID.TID 0000.0001) cAdjFreq =   /* Convective adjustment interval ( s ) */
(PID.TID 0000.0001)                 1.000000000000000E+02
(PID.TID 0000.0001)     ;
(PID.TID 0000.0001) momForcingOutAB = /* =1: take Momentum Forcing out of Adams-Bash. stepping */
(PID.TID 0000.0001)                       0
(PID.TID 0000.0001)     ;
(PID.TID 0000.0001) tracForcingOutAB = /* =1: take T,S,pTr Forcing out of Adams-Bash. stepping */
(PID.TID 0000.0001)                       0
(PID.TID 0000.0001)     ;
(PID.TID 0000.0001) momDissip_In_AB = /* put Dissipation Tendency in Adams-Bash. stepping */
(PID.TID 0000.0001)                   T
(PID.TID 0000.0001)     ;
(PID.TID 0000.0001) doAB_onGtGs = /* apply AB on Tendencies (rather than on T,S)*/
(PID.TID 0000.0001)                   T
(PID.TID 0000.0001)     ;
(PID.TID 0000.0001) abEps =   /* Adams-Bashforth-2 stabilizing weight */
(PID.TID 0000.0001)                 1.000000000000000E-02
(PID.TID 0000.0001)     ;
(PID.TID 0000.0001) applyExchUV_early = /* Apply EXCH to U,V earlier in time-step */
(PID.TID 0000.0001)                   F
(PID.TID 0000.0001)     ;
(PID.TID 0000.0001) pickupStrictlyMatch= /* stop if pickup do not strictly match */
(PID.TID 0000.0001)                   T
(PID.TID 0000.0001)     ;
(PID.TID 0000.0001) nIter0   =   /* Run starting timestep number */
(PID.TID 0000.0001)                     864
(PID.TID 0000.0001)     ;
(PID.TID 0000.0001) nTimeSteps = /* Number of timesteps */
(PID.TID 0000.0001)                     865
(PID.TID 0000.0001)     ;
(PID.TID 0000.0001) nEndIter =   /* Run ending timestep number */
(PID.TID 0000.0001)                    1729
(PID.TID 0000.0001)     ;
(PID.TID 0000.0001) baseTime =   /* Model base time ( s ) */
(PID.TID 0000.0001)                 0.000000000000000E+00
(PID.TID 0000.0001)     ;
(PID.TID 0000.0001) startTime =  /* Run start time ( s ) */
(PID.TID 0000.0001)                 8.640000000000000E+04
(PID.TID 0000.0001)     ;
(PID.TID 0000.0001) endTime  =   /* Integration ending time ( s ) */
(PID.TID 0000.0001)                 1.729000000000000E+05
(PID.TID 0000.0001)     ;
(PID.TID 0000.0001) pChkPtFreq = /* Permanent restart/pickup file interval ( s ) */
(PID.TID 0000.0001)                 8.640000000000000E+04
(PID.TID 0000.0001)     ;
(PID.TID 0000.0001) chkPtFreq  = /* Rolling restart/pickup file interval ( s ) */
(PID.TID 0000.0001)                 8.640000000000000E+05
(PID.TID 0000.0001)     ;
(PID.TID 0000.0001) pickup_write_mdsio =   /* Model IO flag. */
(PID.TID 0000.0001)                   T
(PID.TID 0000.0001)     ;
(PID.TID 0000.0001) pickup_read_mdsio =   /* Model IO flag. */
(PID.TID 0000.0001)                   T
(PID.TID 0000.0001)     ;
(PID.TID 0000.0001) writePickupAtEnd =   /* Model IO flag. */
(PID.TID 0000.0001)                   T
(PID.TID 0000.0001)     ;
(PID.TID 0000.0001) dumpFreq =   /* Model state write out interval ( s ). */
(PID.TID 0000.0001)                 8.640000000000000E+05
(PID.TID 0000.0001)     ;
(PID.TID 0000.0001) dumpInitAndLast= /* write out Initial & Last iter. model state */
(PID.TID 0000.0001)                   T
(PID.TID 0000.0001)     ;
(PID.TID 0000.0001) snapshot_mdsio =   /* Model IO flag. */
(PID.TID 0000.0001)                   T
(PID.TID 0000.0001)     ;
(PID.TID 0000.0001) monitorFreq =   /* Monitor output interval ( s ). */
(PID.TID 0000.0001)                 1.000000000000000E+02
(PID.TID 0000.0001)     ;
(PID.TID 0000.0001) monitorSelect = /* select group of variables to monitor */
(PID.TID 0000.0001)                       1
(PID.TID 0000.0001)     ;
(PID.TID 0000.0001) monitor_stdio =   /* Model IO flag. */
(PID.TID 0000.0001)                   T
(PID.TID 0000.0001)     ;
(PID.TID 0000.0001) externForcingPeriod =   /* forcing period (s) */
(PID.TID 0000.0001)                 0.000000000000000E+00
(PID.TID 0000.0001)     ;
(PID.TID 0000.0001) externForcingCycle =   /* period of the cyle (s). */
(PID.TID 0000.0001)                 0.000000000000000E+00
(PID.TID 0000.0001)     ;
(PID.TID 0000.0001) tauThetaClimRelax =   /* relaxation time scale (s) */
(PID.TID 0000.0001)                 0.000000000000000E+00
(PID.TID 0000.0001)     ;
(PID.TID 0000.0001) tauSaltClimRelax =   /* relaxation time scale (s) */
(PID.TID 0000.0001)                 0.000000000000000E+00
(PID.TID 0000.0001)     ;
(PID.TID 0000.0001) latBandClimRelax =   /* max. Lat. where relaxation */
(PID.TID 0000.0001)                 3.060000000000000E+05
(PID.TID 0000.0001)     ;
(PID.TID 0000.0001) //
(PID.TID 0000.0001) // Gridding paramters ( PARM04 in namelist )
(PID.TID 0000.0001) //
(PID.TID 0000.0001) usingCartesianGrid = /* Cartesian coordinates flag ( True/False ) */
(PID.TID 0000.0001)                   T
(PID.TID 0000.0001)     ;
(PID.TID 0000.0001) usingCylindricalGrid = /* Cylindrical coordinates flag ( True/False ) */
(PID.TID 0000.0001)                   F
(PID.TID 0000.0001)     ;
(PID.TID 0000.0001) usingSphericalPolarGrid = /* Spherical coordinates flag ( True/False ) */
(PID.TID 0000.0001)                   F
(PID.TID 0000.0001)     ;
(PID.TID 0000.0001) usingCurvilinearGrid = /* Curvilinear coordinates flag ( True/False ) */
(PID.TID 0000.0001)                   F
(PID.TID 0000.0001)     ;
(PID.TID 0000.0001) useMin4hFacEdges = /* set hFacW,S as minimum of adjacent hFacC factor */
(PID.TID 0000.0001)                   F
(PID.TID 0000.0001)     ;
(PID.TID 0000.0001) interViscAr_pCell = /* account for partial-cell in interior vert. viscosity */
(PID.TID 0000.0001)                   F
(PID.TID 0000.0001)     ;
(PID.TID 0000.0001) interDiffKr_pCell = /* account for partial-cell in interior vert. diffusion */
(PID.TID 0000.0001)                   F
(PID.TID 0000.0001)     ;
(PID.TID 0000.0001) pCellMix_select = /* option to enhance mixing near surface & bottom */
(PID.TID 0000.0001)                       0
(PID.TID 0000.0001)     ;
(PID.TID 0000.0001) selectSigmaCoord = /* Hybrid-Sigma Vert. Coordinate option */
(PID.TID 0000.0001)                       0
(PID.TID 0000.0001)     ;
(PID.TID 0000.0001) rSigmaBnd = /* r/sigma transition ( units of r ==  m ) */
(PID.TID 0000.0001)                 1.234567000000000E+05
(PID.TID 0000.0001)     ;
(PID.TID 0000.0001) rkSign =   /* index orientation relative to vertical coordinate */
(PID.TID 0000.0001)                -1.000000000000000E+00
(PID.TID 0000.0001)     ;
(PID.TID 0000.0001) gravitySign = /* gravity orientation relative to vertical coordinate */
(PID.TID 0000.0001)                -1.000000000000000E+00
(PID.TID 0000.0001)     ;
(PID.TID 0000.0001) seaLev_Z =  /* reference height of sea-level [m] */
(PID.TID 0000.0001)                 0.000000000000000E+00
(PID.TID 0000.0001)     ;
(PID.TID 0000.0001) top_Pres =  /* reference pressure at the top [Pa] */
(PID.TID 0000.0001)                 0.000000000000000E+00
(PID.TID 0000.0001)     ;
(PID.TID 0000.0001) mass2rUnit = /* convert mass per unit area [kg/m2] to r-units [m] */
(PID.TID 0000.0001)                 1.000000000000000E-03
(PID.TID 0000.0001)     ;
(PID.TID 0000.0001) rUnit2mass = /* convert r-units [m] to mass per unit area [kg/m2] */
(PID.TID 0000.0001)                 1.000000000000000E+03
(PID.TID 0000.0001)     ;
(PID.TID 0000.0001) drC =   /* C spacing ( units of r ) */
(PID.TID 0000.0001)                 1.000000000000000E+01,      /* K =  1 */
(PID.TID 0000.0001)    54 @  2.000000000000000E+01,             /* K =  2: 55 */
(PID.TID 0000.0001)                 1.000000000000000E+01       /* K = 56 */
(PID.TID 0000.0001)     ;
(PID.TID 0000.0001) drF =   /* W spacing ( units of r ) */
(PID.TID 0000.0001)    55 @  2.000000000000000E+01              /* K =  1: 55 */
(PID.TID 0000.0001)     ;
(PID.TID 0000.0001) delX = /* U spacing ( m - cartesian, degrees - spherical ) */
(PID.TID 0000.0001)    62 @  1.000000000000000E+03              /* I =  1: 62 */
(PID.TID 0000.0001)     ;
(PID.TID 0000.0001) delY = /* V spacing ( m - cartesian, degrees - spherical ) */
(PID.TID 0000.0001)   102 @  1.000000000000000E+03              /* J =  1:102 */
(PID.TID 0000.0001)     ;
(PID.TID 0000.0001) xgOrigin = /* X-axis origin of West  edge (cartesian: m, lat-lon: deg) */
(PID.TID 0000.0001)                -1.000000000000000E+03
(PID.TID 0000.0001)     ;
(PID.TID 0000.0001) ygOrigin = /* Y-axis origin of South edge (cartesian: m, lat-lon: deg) */
(PID.TID 0000.0001)                -2.000000000000000E+03
(PID.TID 0000.0001)     ;
(PID.TID 0000.0001) rSphere =  /* Radius ( ignored - cartesian, m - spherical ) */
(PID.TID 0000.0001)                 6.370000000000000E+06
(PID.TID 0000.0001)     ;
(PID.TID 0000.0001) deepAtmosphere = /* Deep/Shallow Atmosphere flag (True/False) */
(PID.TID 0000.0001)                   F
(PID.TID 0000.0001)     ;
(PID.TID 0000.0001) xC =  /* xC(:,1,:,1) : P-point X coord ( deg. or m if cartesian) */
(PID.TID 0000.0001)                -5.000000000000000E+02,      /* I =  1 */
(PID.TID 0000.0001)                 5.000000000000000E+02,      /* I =  2 */
(PID.TID 0000.0001)                 1.500000000000000E+03,      /* I =  3 */
(PID.TID 0000.0001)                 2.500000000000000E+03,      /* I =  4 */
(PID.TID 0000.0001)                 3.500000000000000E+03,      /* I =  5 */
(PID.TID 0000.0001)                 4.500000000000000E+03,      /* I =  6 */
(PID.TID 0000.0001)                 5.500000000000000E+03,      /* I =  7 */
(PID.TID 0000.0001)                 6.500000000000000E+03,      /* I =  8 */
(PID.TID 0000.0001)                 7.500000000000000E+03,      /* I =  9 */
(PID.TID 0000.0001)                 8.500000000000000E+03,      /* I = 10 */
(PID.TID 0000.0001)                 9.500000000000000E+03,      /* I = 11 */
(PID.TID 0000.0001)                 1.050000000000000E+04,      /* I = 12 */
(PID.TID 0000.0001)                 1.150000000000000E+04,      /* I = 13 */
(PID.TID 0000.0001)                 1.250000000000000E+04,      /* I = 14 */
(PID.TID 0000.0001)                 1.350000000000000E+04,      /* I = 15 */
(PID.TID 0000.0001)                 1.450000000000000E+04,      /* I = 16 */
(PID.TID 0000.0001)                 1.550000000000000E+04,      /* I = 17 */
(PID.TID 0000.0001)                 1.650000000000000E+04,      /* I = 18 */
(PID.TID 0000.0001)                 1.750000000000000E+04,      /* I = 19 */
(PID.TID 0000.0001)                 1.850000000000000E+04,      /* I = 20 */
(PID.TID 0000.0001)                 1.950000000000000E+04,      /* I = 21 */
(PID.TID 0000.0001)                 2.050000000000000E+04,      /* I = 22 */
(PID.TID 0000.0001)                 2.150000000000000E+04,      /* I = 23 */
(PID.TID 0000.0001)                 2.250000000000000E+04,      /* I = 24 */
(PID.TID 0000.0001)                 2.350000000000000E+04,      /* I = 25 */
(PID.TID 0000.0001)                 2.450000000000000E+04,      /* I = 26 */
(PID.TID 0000.0001)                 2.550000000000000E+04,      /* I = 27 */
(PID.TID 0000.0001)                 2.650000000000000E+04,      /* I = 28 */
(PID.TID 0000.0001)                 2.750000000000000E+04,      /* I = 29 */
(PID.TID 0000.0001)                 2.850000000000000E+04,      /* I = 30 */
(PID.TID 0000.0001)                 2.950000000000000E+04       /* I = 31 */
(PID.TID 0000.0001)     ;
(PID.TID 0000.0001) yC =  /* yC(1,:,1,:) : P-point Y coord ( deg. or m if cartesian) */
(PID.TID 0000.0001)                -1.500000000000000E+03,      /* J =  1 */
(PID.TID 0000.0001)                -5.000000000000000E+02,      /* J =  2 */
(PID.TID 0000.0001)                 5.000000000000000E+02,      /* J =  3 */
(PID.TID 0000.0001)                 1.500000000000000E+03,      /* J =  4 */
(PID.TID 0000.0001)                 2.500000000000000E+03,      /* J =  5 */
(PID.TID 0000.0001)                 3.500000000000000E+03,      /* J =  6 */
(PID.TID 0000.0001)                 4.500000000000000E+03,      /* J =  7 */
(PID.TID 0000.0001)                 5.500000000000000E+03,      /* J =  8 */
(PID.TID 0000.0001)                 6.500000000000000E+03,      /* J =  9 */
(PID.TID 0000.0001)                 7.500000000000000E+03,      /* J = 10 */
(PID.TID 0000.0001)                 8.500000000000000E+03,      /* J = 11 */
(PID.TID 0000.0001)                 9.500000000000000E+03,      /* J = 12 */
(PID.TID 0000.0001)                 1.050000000000000E+04,      /* J = 13 */
(PID.TID 0000.0001)                 1.150000000000000E+04,      /* J = 14 */
(PID.TID 0000.0001)                 1.250000000000000E+04,      /* J = 15 */
(PID.TID 0000.0001)                 1.350000000000000E+04,      /* J = 16 */
(PID.TID 0000.0001)                 1.450000000000000E+04       /* J = 17 */
(PID.TID 0000.0001)     ;
(PID.TID 0000.0001) rcoord = /* P-point R coordinate (  units of r ) */
(PID.TID 0000.0001)                -1.000000000000000E+01,      /* K =  1 */
(PID.TID 0000.0001)                -3.000000000000000E+01,      /* K =  2 */
(PID.TID 0000.0001)                -5.000000000000000E+01,      /* K =  3 */
(PID.TID 0000.0001)                -7.000000000000000E+01,      /* K =  4 */
(PID.TID 0000.0001)                -9.000000000000000E+01,      /* K =  5 */
(PID.TID 0000.0001)                -1.100000000000000E+02,      /* K =  6 */
(PID.TID 0000.0001)                -1.300000000000000E+02,      /* K =  7 */
(PID.TID 0000.0001)                -1.500000000000000E+02,      /* K =  8 */
(PID.TID 0000.0001)                -1.700000000000000E+02,      /* K =  9 */
(PID.TID 0000.0001)                -1.900000000000000E+02,      /* K = 10 */
(PID.TID 0000.0001)                -2.100000000000000E+02,      /* K = 11 */
(PID.TID 0000.0001)                -2.300000000000000E+02,      /* K = 12 */
(PID.TID 0000.0001)                -2.500000000000000E+02,      /* K = 13 */
(PID.TID 0000.0001)                -2.700000000000000E+02,      /* K = 14 */
(PID.TID 0000.0001)                -2.900000000000000E+02,      /* K = 15 */
(PID.TID 0000.0001)                -3.100000000000000E+02,      /* K = 16 */
(PID.TID 0000.0001)                -3.300000000000000E+02,      /* K = 17 */
(PID.TID 0000.0001)                -3.500000000000000E+02,      /* K = 18 */
(PID.TID 0000.0001)                -3.700000000000000E+02,      /* K = 19 */
(PID.TID 0000.0001)                -3.900000000000000E+02,      /* K = 20 */
(PID.TID 0000.0001)                -4.100000000000000E+02,      /* K = 21 */
(PID.TID 0000.0001)                -4.300000000000000E+02,      /* K = 22 */
(PID.TID 0000.0001)                -4.500000000000000E+02,      /* K = 23 */
(PID.TID 0000.0001)                -4.700000000000000E+02,      /* K = 24 */
(PID.TID 0000.0001)                -4.900000000000000E+02,      /* K = 25 */
(PID.TID 0000.0001)                -5.100000000000000E+02,      /* K = 26 */
(PID.TID 0000.0001)                -5.300000000000000E+02,      /* K = 27 */
(PID.TID 0000.0001)                -5.500000000000000E+02,      /* K = 28 */
(PID.TID 0000.0001)                -5.700000000000000E+02,      /* K = 29 */
(PID.TID 0000.0001)                -5.900000000000000E+02,      /* K = 30 */
(PID.TID 0000.0001)                -6.100000000000000E+02,      /* K = 31 */
(PID.TID 0000.0001)                -6.300000000000000E+02,      /* K = 32 */
(PID.TID 0000.0001)                -6.500000000000000E+02,      /* K = 33 */
(PID.TID 0000.0001)                -6.700000000000000E+02,      /* K = 34 */
(PID.TID 0000.0001)                -6.900000000000000E+02,      /* K = 35 */
(PID.TID 0000.0001)                -7.100000000000000E+02,      /* K = 36 */
(PID.TID 0000.0001)                -7.300000000000000E+02,      /* K = 37 */
(PID.TID 0000.0001)                -7.500000000000000E+02,      /* K = 38 */
(PID.TID 0000.0001)                -7.700000000000000E+02,      /* K = 39 */
(PID.TID 0000.0001)                -7.900000000000000E+02,      /* K = 40 */
(PID.TID 0000.0001)                -8.100000000000000E+02,      /* K = 41 */
(PID.TID 0000.0001)                -8.300000000000000E+02,      /* K = 42 */
(PID.TID 0000.0001)                -8.500000000000000E+02,      /* K = 43 */
(PID.TID 0000.0001)                -8.700000000000000E+02,      /* K = 44 */
(PID.TID 0000.0001)                -8.900000000000000E+02,      /* K = 45 */
(PID.TID 0000.0001)                -9.100000000000000E+02,      /* K = 46 */
(PID.TID 0000.0001)                -9.300000000000000E+02,      /* K = 47 */
(PID.TID 0000.0001)                -9.500000000000000E+02,      /* K = 48 */
(PID.TID 0000.0001)                -9.700000000000000E+02,      /* K = 49 */
(PID.TID 0000.0001)                -9.900000000000000E+02,      /* K = 50 */
(PID.TID 0000.0001)                -1.010000000000000E+03,      /* K = 51 */
(PID.TID 0000.0001)                -1.030000000000000E+03,      /* K = 52 */
(PID.TID 0000.0001)                -1.050000000000000E+03,      /* K = 53 */
(PID.TID 0000.0001)                -1.070000000000000E+03,      /* K = 54 */
(PID.TID 0000.0001)                -1.090000000000000E+03       /* K = 55 */
(PID.TID 0000.0001)     ;
(PID.TID 0000.0001) rF =   /* W-Interf. R coordinate (  units of r ) */
(PID.TID 0000.0001)                 0.000000000000000E+00,      /* K =  1 */
(PID.TID 0000.0001)                -2.000000000000000E+01,      /* K =  2 */
(PID.TID 0000.0001)                -4.000000000000000E+01,      /* K =  3 */
(PID.TID 0000.0001)                -6.000000000000000E+01,      /* K =  4 */
(PID.TID 0000.0001)                -8.000000000000000E+01,      /* K =  5 */
(PID.TID 0000.0001)                -1.000000000000000E+02,      /* K =  6 */
(PID.TID 0000.0001)                -1.200000000000000E+02,      /* K =  7 */
(PID.TID 0000.0001)                -1.400000000000000E+02,      /* K =  8 */
(PID.TID 0000.0001)                -1.600000000000000E+02,      /* K =  9 */
(PID.TID 0000.0001)                -1.800000000000000E+02,      /* K = 10 */
(PID.TID 0000.0001)                -2.000000000000000E+02,      /* K = 11 */
(PID.TID 0000.0001)                -2.200000000000000E+02,      /* K = 12 */
(PID.TID 0000.0001)                -2.400000000000000E+02,      /* K = 13 */
(PID.TID 0000.0001)                -2.600000000000000E+02,      /* K = 14 */
(PID.TID 0000.0001)                -2.800000000000000E+02,      /* K = 15 */
(PID.TID 0000.0001)                -3.000000000000000E+02,      /* K = 16 */
(PID.TID 0000.0001)                -3.200000000000000E+02,      /* K = 17 */
(PID.TID 0000.0001)                -3.400000000000000E+02,      /* K = 18 */
(PID.TID 0000.0001)                -3.600000000000000E+02,      /* K = 19 */
(PID.TID 0000.0001)                -3.800000000000000E+02,      /* K = 20 */
(PID.TID 0000.0001)                -4.000000000000000E+02,      /* K = 21 */
(PID.TID 0000.0001)                -4.200000000000000E+02,      /* K = 22 */
(PID.TID 0000.0001)                -4.400000000000000E+02,      /* K = 23 */
(PID.TID 0000.0001)                -4.600000000000000E+02,      /* K = 24 */
(PID.TID 0000.0001)                -4.800000000000000E+02,      /* K = 25 */
(PID.TID 0000.0001)                -5.000000000000000E+02,      /* K = 26 */
(PID.TID 0000.0001)                -5.200000000000000E+02,      /* K = 27 */
(PID.TID 0000.0001)                -5.400000000000000E+02,      /* K = 28 */
(PID.TID 0000.0001)                -5.600000000000000E+02,      /* K = 29 */
(PID.TID 0000.0001)                -5.800000000000000E+02,      /* K = 30 */
(PID.TID 0000.0001)                -6.000000000000000E+02,      /* K = 31 */
(PID.TID 0000.0001)                -6.200000000000000E+02,      /* K = 32 */
(PID.TID 0000.0001)                -6.400000000000000E+02,      /* K = 33 */
(PID.TID 0000.0001)                -6.600000000000000E+02,      /* K = 34 */
(PID.TID 0000.0001)                -6.800000000000000E+02,      /* K = 35 */
(PID.TID 0000.0001)                -7.000000000000000E+02,      /* K = 36 */
(PID.TID 0000.0001)                -7.200000000000000E+02,      /* K = 37 */
(PID.TID 0000.0001)                -7.400000000000000E+02,      /* K = 38 */
(PID.TID 0000.0001)                -7.600000000000000E+02,      /* K = 39 */
(PID.TID 0000.0001)                -7.800000000000000E+02,      /* K = 40 */
(PID.TID 0000.0001)                -8.000000000000000E+02,      /* K = 41 */
(PID.TID 0000.0001)                -8.200000000000000E+02,      /* K = 42 */
(PID.TID 0000.0001)                -8.400000000000000E+02,      /* K = 43 */
(PID.TID 0000.0001)                -8.600000000000000E+02,      /* K = 44 */
(PID.TID 0000.0001)                -8.800000000000000E+02,      /* K = 45 */
(PID.TID 0000.0001)                -9.000000000000000E+02,      /* K = 46 */
(PID.TID 0000.0001)                -9.200000000000000E+02,      /* K = 47 */
(PID.TID 0000.0001)                -9.400000000000000E+02,      /* K = 48 */
(PID.TID 0000.0001)                -9.600000000000000E+02,      /* K = 49 */
(PID.TID 0000.0001)                -9.800000000000000E+02,      /* K = 50 */
(PID.TID 0000.0001)                -1.000000000000000E+03,      /* K = 51 */
(PID.TID 0000.0001)                -1.020000000000000E+03,      /* K = 52 */
(PID.TID 0000.0001)                -1.040000000000000E+03,      /* K = 53 */
(PID.TID 0000.0001)                -1.060000000000000E+03,      /* K = 54 */
(PID.TID 0000.0001)                -1.080000000000000E+03,      /* K = 55 */
(PID.TID 0000.0001)                -1.100000000000000E+03       /* K = 56 */
(PID.TID 0000.0001)     ;
(PID.TID 0000.0001) deepFacC = /* deep-model grid factor @ cell-Center (-) */
(PID.TID 0000.0001)    55 @  1.000000000000000E+00              /* K =  1: 55 */
(PID.TID 0000.0001)     ;
(PID.TID 0000.0001) deepFacF = /* deep-model grid factor @ W-Interface (-) */
(PID.TID 0000.0001)    56 @  1.000000000000000E+00              /* K =  1: 56 */
(PID.TID 0000.0001)     ;
(PID.TID 0000.0001) rVel2wUnit = /* convert units: rVel -> wSpeed (=1 if z-coord)*/
(PID.TID 0000.0001)    56 @  1.000000000000000E+00              /* K =  1: 56 */
(PID.TID 0000.0001)     ;
(PID.TID 0000.0001) wUnit2rVel = /* convert units: wSpeed -> rVel (=1 if z-coord)*/
(PID.TID 0000.0001)    56 @  1.000000000000000E+00              /* K =  1: 56 */
(PID.TID 0000.0001)     ;
(PID.TID 0000.0001) dBdrRef = /* Vertical grad. of reference buoyancy [(m/s/r)^2] */
(PID.TID 0000.0001)    55 @  0.000000000000000E+00              /* K =  1: 55 */
(PID.TID 0000.0001)     ;
(PID.TID 0000.0001) rotateGrid = /* use rotated grid ( True/False ) */
(PID.TID 0000.0001)                   F
(PID.TID 0000.0001)     ;
(PID.TID 0000.0001) phiEuler = /* Euler angle, rotation about original z-coordinate [rad] */
(PID.TID 0000.0001)                 0.000000000000000E+00
(PID.TID 0000.0001)     ;
(PID.TID 0000.0001) thetaEuler = /* Euler angle, rotation about new x-coordinate [rad] */
(PID.TID 0000.0001)                 0.000000000000000E+00
(PID.TID 0000.0001)     ;
(PID.TID 0000.0001) psiEuler = /* Euler angle, rotation about new z-coordinate [rad] */
(PID.TID 0000.0001)                 0.000000000000000E+00
(PID.TID 0000.0001)     ;
(PID.TID 0000.0001) dxF =  /* dxF(:,1,:,1) ( units: m ) */
(PID.TID 0000.0001)    31 @  1.000000000000000E+03              /* I =  1: 31 */
(PID.TID 0000.0001)     ;
(PID.TID 0000.0001) dxF =  /* dxF(1,:,1,:) ( units: m ) */
(PID.TID 0000.0001)    17 @  1.000000000000000E+03              /* J =  1: 17 */
(PID.TID 0000.0001)     ;
(PID.TID 0000.0001) dyF =  /* dyF(:,1,:,1) ( units: m ) */
(PID.TID 0000.0001)    31 @  1.000000000000000E+03              /* I =  1: 31 */
(PID.TID 0000.0001)     ;
(PID.TID 0000.0001) dyF =  /* dyF(1,:,1,:) ( units: m ) */
(PID.TID 0000.0001)    17 @  1.000000000000000E+03              /* J =  1: 17 */
(PID.TID 0000.0001)     ;
(PID.TID 0000.0001) dxG =  /* dxG(:,1,:,1) ( units: m ) */
(PID.TID 0000.0001)    31 @  1.000000000000000E+03              /* I =  1: 31 */
(PID.TID 0000.0001)     ;
(PID.TID 0000.0001) dxG =  /* dxG(1,:,1,:) ( units: m ) */
(PID.TID 0000.0001)    17 @  1.000000000000000E+03              /* J =  1: 17 */
(PID.TID 0000.0001)     ;
(PID.TID 0000.0001) dyG =  /* dyG(:,1,:,1) ( units: m ) */
(PID.TID 0000.0001)    31 @  1.000000000000000E+03              /* I =  1: 31 */
(PID.TID 0000.0001)     ;
(PID.TID 0000.0001) dyG =  /* dyG(1,:,1,:) ( units: m ) */
(PID.TID 0000.0001)    17 @  1.000000000000000E+03              /* J =  1: 17 */
(PID.TID 0000.0001)     ;
(PID.TID 0000.0001) dxC =  /* dxC(:,1,:,1) ( units: m ) */
(PID.TID 0000.0001)    31 @  1.000000000000000E+03              /* I =  1: 31 */
(PID.TID 0000.0001)     ;
(PID.TID 0000.0001) dxC =  /* dxC(1,:,1,:) ( units: m ) */
(PID.TID 0000.0001)    17 @  1.000000000000000E+03              /* J =  1: 17 */
(PID.TID 0000.0001)     ;
(PID.TID 0000.0001) dyC =  /* dyC(:,1,:,1) ( units: m ) */
(PID.TID 0000.0001)    31 @  1.000000000000000E+03              /* I =  1: 31 */
(PID.TID 0000.0001)     ;
(PID.TID 0000.0001) dyC =  /* dyC(1,:,1,:) ( units: m ) */
(PID.TID 0000.0001)    17 @  1.000000000000000E+03              /* J =  1: 17 */
(PID.TID 0000.0001)     ;
(PID.TID 0000.0001) dxV =  /* dxV(:,1,:,1) ( units: m ) */
(PID.TID 0000.0001)    31 @  1.000000000000000E+03              /* I =  1: 31 */
(PID.TID 0000.0001)     ;
(PID.TID 0000.0001) dxV =  /* dxV(1,:,1,:) ( units: m ) */
(PID.TID 0000.0001)    17 @  1.000000000000000E+03              /* J =  1: 17 */
(PID.TID 0000.0001)     ;
(PID.TID 0000.0001) dyU =  /* dyU(:,1,:,1) ( units: m ) */
(PID.TID 0000.0001)    31 @  1.000000000000000E+03              /* I =  1: 31 */
(PID.TID 0000.0001)     ;
(PID.TID 0000.0001) dyU =  /* dyU(1,:,1,:) ( units: m ) */
(PID.TID 0000.0001)    17 @  1.000000000000000E+03              /* J =  1: 17 */
(PID.TID 0000.0001)     ;
(PID.TID 0000.0001) rA  =  /* rA (:,1,:,1) ( units: m^2 ) */
(PID.TID 0000.0001)    31 @  1.000000000000000E+06              /* I =  1: 31 */
(PID.TID 0000.0001)     ;
(PID.TID 0000.0001) rA  =  /* rA (1,:,1,:) ( units: m^2 ) */
(PID.TID 0000.0001)    17 @  1.000000000000000E+06              /* J =  1: 17 */
(PID.TID 0000.0001)     ;
(PID.TID 0000.0001) rAw =  /* rAw(:,1,:,1) ( units: m^2 ) */
(PID.TID 0000.0001)    31 @  1.000000000000000E+06              /* I =  1: 31 */
(PID.TID 0000.0001)     ;
(PID.TID 0000.0001) rAw =  /* rAw(1,:,1,:) ( units: m^2 ) */
(PID.TID 0000.0001)    17 @  1.000000000000000E+06              /* J =  1: 17 */
(PID.TID 0000.0001)     ;
(PID.TID 0000.0001) rAs =  /* rAs(:,1,:,1) ( units: m^2 ) */
(PID.TID 0000.0001)    31 @  1.000000000000000E+06              /* I =  1: 31 */
(PID.TID 0000.0001)     ;
(PID.TID 0000.0001) rAs =  /* rAs(1,:,1,:) ( units: m^2 ) */
(PID.TID 0000.0001)    17 @  1.000000000000000E+06              /* J =  1: 17 */
(PID.TID 0000.0001)     ;
(PID.TID 0000.0001) globalArea = /* Integrated horizontal Area (m^2) */
(PID.TID 0000.0001)                 5.940000000000000E+09
(PID.TID 0000.0001)     ;
(PID.TID 0000.0001) // =======================================================
(PID.TID 0000.0001) // End of Model config. summary
(PID.TID 0000.0001) // =======================================================
(PID.TID 0000.0001) 
(PID.TID 0000.0001) == Packages configuration : Check & print summary ==
(PID.TID 0000.0001) 
(PID.TID 0000.0001) OBCS_CHECK: #define ALLOW_OBCS
(PID.TID 0000.0001) OBCS_CHECK: start summary:
(PID.TID 0000.0001) useOBCSprescribe = /* prescribe OB values */
(PID.TID 0000.0001)                   T
(PID.TID 0000.0001)     ;
(PID.TID 0000.0001) useOBCSbalance = /* balance the flow through OB */
(PID.TID 0000.0001)                   T
(PID.TID 0000.0001)     ;
(PID.TID 0000.0001) OBCSbalanceSurf = /* include surf. flux in balance */
(PID.TID 0000.0001)                   F
(PID.TID 0000.0001)     ;
(PID.TID 0000.0001) OBCS_balanceFacN = /* Northern OB Factor for balancing OB flow [-] */
(PID.TID 0000.0001)                 1.000000000000000E+00
(PID.TID 0000.0001)     ;
(PID.TID 0000.0001) OBCS_balanceFacS = /* Southern OB Factor for balancing OB flow [-] */
(PID.TID 0000.0001)                 1.000000000000000E+00
(PID.TID 0000.0001)     ;
(PID.TID 0000.0001) OBCS_balanceFacE = /* Eastern  OB Factor for balancing OB flow [-] */
(PID.TID 0000.0001)                 1.000000000000000E+00
(PID.TID 0000.0001)     ;
(PID.TID 0000.0001) OBCS_balanceFacW = /* Western  OB Factor for balancing OB flow [-] */
(PID.TID 0000.0001)                 1.000000000000000E+00
(PID.TID 0000.0001)     ;
(PID.TID 0000.0001) OBCS_uvApplyFac = /* Factor to apply to U,V 2nd column/row */
(PID.TID 0000.0001)                 1.000000000000000E+00
(PID.TID 0000.0001)     ;
(PID.TID 0000.0001) OBCS_u1_adv_T = /* Temp uses upwind adv-scheme @ OB */
(PID.TID 0000.0001)                       0
(PID.TID 0000.0001)     ;
(PID.TID 0000.0001) OBCS_u1_adv_S = /* Salt uses upwind adv-scheme @ OB */
(PID.TID 0000.0001)                       0
(PID.TID 0000.0001)     ;
(PID.TID 0000.0001) OBCS_monitorFreq = /* monitor output frequency [s] */
(PID.TID 0000.0001)                 1.000000000000000E+02
(PID.TID 0000.0001)     ;
(PID.TID 0000.0001) OBCS_monSelect = /* select group of variables to monitor */
(PID.TID 0000.0001)                       0
(PID.TID 0000.0001)     ;
(PID.TID 0000.0001) useOBCStides = /* apply tidal forcing through OB */
(PID.TID 0000.0001)                   F
(PID.TID 0000.0001)     ;
(PID.TID 0000.0001) tidalPeriod = /* (s) */
(PID.TID 0000.0001)    10 @  0.000000000000000E+00              /* I =  1: 10 */
(PID.TID 0000.0001)     ;
(PID.TID 0000.0001) OB_indexNone = /* null value for OB index (i.e. no OB) */
(PID.TID 0000.0001)                     -99
(PID.TID 0000.0001)     ;
(PID.TID 0000.0001) ======== Tile bi=   1 , bj=   1 ========
(PID.TID 0000.0001)  OB_Jn = /* Northern OB local indices */
(PID.TID 0000.0001)    37 @      -99                            /* I = -2: 34 */
(PID.TID 0000.0001)  OB_Js = /* Southern OB local indices */
(PID.TID 0000.0001)    37 @      -99                            /* I = -2: 34 */
(PID.TID 0000.0001)  OB_Ie = /* Eastern OB local indices */
(PID.TID 0000.0001)    23 @      -99                            /* J = -2: 20 */
(PID.TID 0000.0001)  OB_Iw = /* Western OB local indices */
(PID.TID 0000.0001)    23 @      -99                            /* J = -2: 20 */
(PID.TID 0000.0001) OBCS_CHECK: end summary.
(PID.TID 0000.0001) OBCS_CHECK: set-up OK
(PID.TID 0000.0001) OBCS_CHECK: check Inside Mask and OB locations: OK
(PID.TID 0000.0001) SHELFICE_CHECK: #define ALLOW_SHELFICE
(PID.TID 0000.0001) 
(PID.TID 0000.0001) SHELFICE_CHECK: start of SHELFICE config. summary
(PID.TID 0000.0001) SHELFICEisOn = /* package is turned on */
(PID.TID 0000.0001)                   T
(PID.TID 0000.0001)     ;
(PID.TID 0000.0001) useISOMIPTD = /* use simple isomip thermodynamics */
(PID.TID 0000.0001)                   F
(PID.TID 0000.0001)     ;
(PID.TID 0000.0001) SHELFICEconserve = /* use a conservative form of boundary conditions */
(PID.TID 0000.0001)                   T
(PID.TID 0000.0001)     ;
(PID.TID 0000.0001) SHELFICEboundaryLayer = /* use simple boundary layer scheme to suppress noise */
(PID.TID 0000.0001)                   T
(PID.TID 0000.0001)     ;
(PID.TID 0000.0001) SHI_withBL_realFWflux = /* use real FW Flux in boundary layer scheme */
(PID.TID 0000.0001)                   T
(PID.TID 0000.0001)     ;
(PID.TID 0000.0001) SHELFICEadvDiffHeatFlux = /* use adv.-diff. instead of just diff. heat flux into the ice shelf */
(PID.TID 0000.0001)                   F
(PID.TID 0000.0001)     ;
(PID.TID 0000.0001) SHELFICEMassStepping = /* step forward ice shelf mass/thickness */
(PID.TID 0000.0001)                   T
(PID.TID 0000.0001)     ;
(PID.TID 0000.0001) no_slip_shelfice = /* use no slip boundary conditions */
(PID.TID 0000.0001)                   F
(PID.TID 0000.0001)     ;
(PID.TID 0000.0001) SHELFICEdragLinear    = /* linear drag coefficient */
(PID.TID 0000.0001)                 0.000000000000000E+00
(PID.TID 0000.0001)     ;
(PID.TID 0000.0001) SHELFICEdragQuadratic = /* quadratic drag coefficient */
(PID.TID 0000.0001)                 9.700000000000000E-03
(PID.TID 0000.0001)     ;
(PID.TID 0000.0001) SHELFICEselectDragQuadr = /* select quadratic drag option */
(PID.TID 0000.0001)                       0
(PID.TID 0000.0001)     ;
(PID.TID 0000.0001) SHELFICElatentHeat      = /* latent heat of ice */
(PID.TID 0000.0001)                 3.340000000000000E+05
(PID.TID 0000.0001)     ;
(PID.TID 0000.0001) SHELFICEheatCapacity_Cp = /* heat capacity of ice shelf */
(PID.TID 0000.0001)                 2.000000000000000E+03
(PID.TID 0000.0001)     ;
(PID.TID 0000.0001) rhoShelfice   = /* density of ice shelf */
(PID.TID 0000.0001)                 9.170000000000000E+02
(PID.TID 0000.0001)     ;
(PID.TID 0000.0001) SHELFICEkappa = /* thermal conductivity of ice shelf */
(PID.TID 0000.0001)                 1.540000000000000E-06
(PID.TID 0000.0001)     ;
(PID.TID 0000.0001) SHELFICEthetaSurface = /* surface temperature above i.s. */
(PID.TID 0000.0001)                -2.000000000000000E+01
(PID.TID 0000.0001)     ;
(PID.TID 0000.0001) SHELFICEheatTransCoeff = /* heat transfer coefficient */
(PID.TID 0000.0001)                 1.350000000000000E-02
(PID.TID 0000.0001)     ;
(PID.TID 0000.0001) SHELFICEsaltTransCoeff = /* salt transfer coefficient */
(PID.TID 0000.0001)                 2.650000000000000E-04
(PID.TID 0000.0001)     ;
(PID.TID 0000.0001) SHELFICEuseGammaFrict = /* use velocity dependent exchange coefficients */
(PID.TID 0000.0001)                   T
(PID.TID 0000.0001)     ;
(PID.TID 0000.0001) SHI_withBL_uStarTopDz = /* compute uStar from top Dz averaged uVel,vVel */
(PID.TID 0000.0001)                   F
(PID.TID 0000.0001)     ;
(PID.TID 0000.0001) shiCdrag   = /* quadr. drag coefficient for uStar */
(PID.TID 0000.0001)                 9.700000000000000E-03
(PID.TID 0000.0001)     ;
(PID.TID 0000.0001) shiZetaN   = /* parameter for gammaTurb */
(PID.TID 0000.0001)                 5.200000000000000E-02
(PID.TID 0000.0001)     ;
(PID.TID 0000.0001) shiRc      = /* parameter for gammaTurb (not used) */
(PID.TID 0000.0001)                 2.000000000000000E-01
(PID.TID 0000.0001)     ;
(PID.TID 0000.0001) shiPrandtl = /* const. Prandtl No. for gammaTurb */
(PID.TID 0000.0001)                 1.380000000000000E+01
(PID.TID 0000.0001)     ;
(PID.TID 0000.0001) shiSchmidt = /* const. Schmidt No. for gammaTurb */
(PID.TID 0000.0001)                 2.432000000000000E+03
(PID.TID 0000.0001)     ;
(PID.TID 0000.0001) shiKinVisc = /* const. kin. viscosity for gammaTurb */
(PID.TID 0000.0001)                 1.950000000000000E-06
(PID.TID 0000.0001)     ;
(PID.TID 0000.0001) SHELFICEremeshFrequency = /* Frequency (in s) of Remeshing */
(PID.TID 0000.0001)                 3.600000000000000E+03
(PID.TID 0000.0001)     ;
(PID.TID 0000.0001) SHELFICEsplitThreshold = /* hFac remesh threshold above which cell splits */
(PID.TID 0000.0001)                 1.300000000000000E+00
(PID.TID 0000.0001)     ;
(PID.TID 0000.0001) SHELFICEmergeThreshold = /* hFac remesh threshold below which cell merges */
(PID.TID 0000.0001)                 2.900000000000000E-01
(PID.TID 0000.0001)     ;
(PID.TID 0000.0001) SHELFICEloadAnomalyFile = /* file name of loaded loadAnomaly field */
(PID.TID 0000.0001)               ''
(PID.TID 0000.0001)     ;
(PID.TID 0000.0001) SHELFICEmassFile = /* file name of loaded mass field */
(PID.TID 0000.0001)               'shelficemassinit.bin'
(PID.TID 0000.0001)     ;
(PID.TID 0000.0001) SHELFICEtopoFile = /* file name of loaded under-ice topography */
(PID.TID 0000.0001)               'shelftopo.round.bin'
(PID.TID 0000.0001)     ;
(PID.TID 0000.0001) SHELFICEMassDynTendFile = /* file name of loaded dynamic mass tendency field */
(PID.TID 0000.0001)               'shelfice_dmdt.bin'
(PID.TID 0000.0001)     ;
(PID.TID 0000.0001) SHELFICEwriteState  = /* do simple standard output */
(PID.TID 0000.0001)                   T
(PID.TID 0000.0001)     ;
(PID.TID 0000.0001) SHELFICE_dump_mdsio = /* use mdsio for snapshots */
(PID.TID 0000.0001)                   T
(PID.TID 0000.0001)     ;
(PID.TID 0000.0001) SHELFICE_tave_mdsio = /* use mdsio for time averages */
(PID.TID 0000.0001)                   T
(PID.TID 0000.0001)     ;
(PID.TID 0000.0001) SHELFICE_dump_mnc   = /* use netcdf for snapshots */
(PID.TID 0000.0001)                   F
(PID.TID 0000.0001)     ;
(PID.TID 0000.0001) SHELFICE_tave_mnc   = /* use netcdf for time averages */
(PID.TID 0000.0001)                   F
(PID.TID 0000.0001)     ;
(PID.TID 0000.0001) SHELFICE_dumpFreq = /* analoguous to dumpFreq */
(PID.TID 0000.0001)                 8.640000000000000E+05
(PID.TID 0000.0001)     ;
(PID.TID 0000.0001) SHELFICE_taveFreq = /* analoguous to taveFreq */
(PID.TID 0000.0001)                 0.000000000000000E+00
(PID.TID 0000.0001)     ;
(PID.TID 0000.0001) SHELFICE_CHECK: end of SHELFICE config. summary
(PID.TID 0000.0001) GAD_CHECK: #define ALLOW_GENERIC_ADVDIFF
(PID.TID 0000.0001) // =======================================================
(PID.TID 0000.0001) // Check Model config. (CONFIG_CHECK):
(PID.TID 0000.0001) // CONFIG_CHECK : Normal End
(PID.TID 0000.0001) // =======================================================
(PID.TID 0000.0001) 
(PID.TID 0000.0001)  nRecords = 333 ; filePrec =  64 ; fileIter =       864
(PID.TID 0000.0001)     nDims =   2 , dims:
(PID.TID 0000.0001)    1:  62   1  62
(PID.TID 0000.0001)    2: 102   1 102
(PID.TID 0000.0001)     nFlds =   9 , nFl3D =   6 , fields:
(PID.TID 0000.0001)  >Uvel    < >Vvel    < >Theta   < >Salt    < >GuNm1   < >GvNm1   < >EtaN    < >dEtaHdt < >EtaH    <
(PID.TID 0000.0001) missingVal=  1.00000000000000E+00 ; nTimRec =   1 , timeList:
(PID.TID 0000.0001)   8.640000000000E+04
(PID.TID 0000.0001) READ_MFLDS_3D_RL: read field: "Uvel    ", #   1 in fldList, rec=   1
(PID.TID 0000.0001) READ_MFLDS_3D_RL: read field: "Vvel    ", #   2 in fldList, rec=   2
(PID.TID 0000.0001) READ_MFLDS_3D_RL: read field: "Theta   ", #   3 in fldList, rec=   3
(PID.TID 0000.0001) READ_MFLDS_3D_RL: read field: "Salt    ", #   4 in fldList, rec=   4
(PID.TID 0000.0001) READ_MFLDS_3D_RL: read field: "GuNm1   ", #   5 in fldList, rec=   5
(PID.TID 0000.0001) READ_MFLDS_3D_RL: read field: "GvNm1   ", #   6 in fldList, rec=   6
(PID.TID 0000.0001) READ_MFLDS_3D_RL: read field: "EtaN    ", #   7 in fldList, rec= 331
(PID.TID 0000.0001) READ_MFLDS_3D_RL: read field: "dEtaHdt ", #   8 in fldList, rec= 332
(PID.TID 0000.0001) READ_MFLDS_3D_RL: read field: "EtaH    ", #   9 in fldList, rec= 333
(PID.TID 0000.0001) READ_MFLDS_CHECK: - normal end ; reset MFLDS file-name: pickup.0000000864
(PID.TID 0000.0001)  nRecords =   2 ; filePrec =  64 ; fileIter =       864
(PID.TID 0000.0001)     nDims =   2 , dims:
(PID.TID 0000.0001)    1:  62   1  62
(PID.TID 0000.0001)    2: 102   1 102
(PID.TID 0000.0001)     nFlds =   2 , nFl3D =   0 , fields:
(PID.TID 0000.0001)  >SHI_mass< >R_Shelfi<
(PID.TID 0000.0001) missingVal=  1.00000000000000E+00 ; nTimRec =   1 , timeList:
(PID.TID 0000.0001)   8.640000000000E+04
(PID.TID 0000.0001) READ_MFLDS_3D_RL: read field: "SHI_mass", #   1 in fldList, rec=   1
(PID.TID 0000.0001) READ_MFLDS_CHECK: - normal end ; reset MFLDS file-name: pickup_shelfice.0000000864
(PID.TID 0000.0001)  OBCS_FIELDS_LOAD: Reading initial data:       864  8.640000000000E+04
(PID.TID 0000.0001) // =======================================================
(PID.TID 0000.0001) // Model current state
(PID.TID 0000.0001) // =======================================================
(PID.TID 0000.0001) 
(PID.TID 0000.0001) // =======================================================
(PID.TID 0000.0001) // Begin MONITOR dynamic field statistics
(PID.TID 0000.0001) // =======================================================
(PID.TID 0000.0001) %MON time_tsnumber                =                   864
(PID.TID 0000.0001) %MON time_secondsf                =   8.6400000000000E+04
(PID.TID 0000.0001) %MON dynstat_eta_max              =   5.7963838999390E+00
(PID.TID 0000.0001) %MON dynstat_eta_min              =  -1.4196184904161E+01
(PID.TID 0000.0001) %MON dynstat_eta_mean             =  -2.5063536806992E+00
(PID.TID 0000.0001) %MON dynstat_eta_sd               =   4.9507238105418E+00
(PID.TID 0000.0001) %MON dynstat_eta_del2             =   2.0714608355681E-01
(PID.TID 0000.0001) %MON dynstat_uvel_max             =   3.1795730644397E-03
(PID.TID 0000.0001) %MON dynstat_uvel_min             =  -1.4213953347369E-02
(PID.TID 0000.0001) %MON dynstat_uvel_mean            =  -1.1798353991272E-07
(PID.TID 0000.0001) %MON dynstat_uvel_sd              =   4.2148069618704E-04
(PID.TID 0000.0001) %MON dynstat_uvel_del2            =   6.6341976590095E-07
(PID.TID 0000.0001) %MON dynstat_vvel_max             =   1.1490996854116E-02
(PID.TID 0000.0001) %MON dynstat_vvel_min             =  -5.2873661512605E-03
(PID.TID 0000.0001) %MON dynstat_vvel_mean            =   1.5014489058044E-05
(PID.TID 0000.0001) %MON dynstat_vvel_sd              =   2.8134088352594E-04
(PID.TID 0000.0001) %MON dynstat_vvel_del2            =   5.7675348428973E-07
(PID.TID 0000.0001) %MON dynstat_wvel_max             =   5.3711357062664E-04
(PID.TID 0000.0001) %MON dynstat_wvel_min             =  -5.3498234745311E-04
(PID.TID 0000.0001) %MON dynstat_wvel_mean            =   6.7946177100707E-09
(PID.TID 0000.0001) %MON dynstat_wvel_sd              =   1.5551901817675E-05
(PID.TID 0000.0001) %MON dynstat_wvel_del2            =   5.8872520490747E-08
(PID.TID 0000.0001) %MON dynstat_theta_max            =   1.2000000000000E+00
(PID.TID 0000.0001) %MON dynstat_theta_min            =  -1.0000000000000E+00
(PID.TID 0000.0001) %MON dynstat_theta_mean           =   5.6886968261039E-01
(PID.TID 0000.0001) %MON dynstat_theta_sd             =   8.6845799847392E-01
(PID.TID 0000.0001) %MON dynstat_theta_del2           =   1.8154798110892E-06
(PID.TID 0000.0001) %MON dynstat_salt_max             =   3.4700000000000E+01
(PID.TID 0000.0001) %MON dynstat_salt_min             =   3.4000000000000E+01
(PID.TID 0000.0001) %MON dynstat_salt_mean            =   3.4499162048803E+01
(PID.TID 0000.0001) %MON dynstat_salt_sd              =   2.7631941931818E-01
(PID.TID 0000.0001) %MON dynstat_salt_del2            =   7.1147135645925E-07
(PID.TID 0000.0001) %MON advcfl_uvel_max              =   1.4213953347369E-03
(PID.TID 0000.0001) %MON advcfl_vvel_max              =   1.1490996854116E-03
(PID.TID 0000.0001) %MON advcfl_wvel_max              =   2.6855678531332E-03
(PID.TID 0000.0001) %MON advcfl_W_hf_max              =   2.6855678531332E-03
(PID.TID 0000.0001) %MON pe_b_mean                    =   2.0997841770500E-01
(PID.TID 0000.0001) %MON ke_max                       =   6.1020101691657E-05
(PID.TID 0000.0001) %MON ke_mean                      =   1.2674800647855E-07
(PID.TID 0000.0001) %MON ke_vol                       =   4.2724923283796E+12
(PID.TID 0000.0001) // =======================================================
(PID.TID 0000.0001) // End MONITOR dynamic field statistics
(PID.TID 0000.0001) // =======================================================
(PID.TID 0000.0001) // =======================================================
(PID.TID 0000.0001) // Begin OBCS MONITOR field statistics
(PID.TID 0000.0001) // =======================================================
(PID.TID 0000.0001) %MON obc_N_vVel_max               =   1.4765088807520E-05
(PID.TID 0000.0001) %MON obc_N_vVel_min               =   1.4765088807520E-05
(PID.TID 0000.0001) %MON obc_N_vVel_mean              =   1.4765088807520E-05
(PID.TID 0000.0001) %MON obc_N_vVel_sd                =   4.2476907975173E-12
(PID.TID 0000.0001) %MON obc_N_vVel_Int               =   9.7449586129630E+02
(PID.TID 0000.0001) // =======================================================
(PID.TID 0000.0001) // End OBCS MONITOR field statistics
(PID.TID 0000.0001) // =======================================================
(PID.TID 0000.0001) SOLVE_FOR_PRESSURE: putPmEinXvector =    F
 cg2d: Sum(rhs),rhsMax =   4.51265991743011E+00  2.99920070990500E+02
(PID.TID 0000.0001)      cg2d_init_res =   6.14615934576674E-06
(PID.TID 0000.0001)      cg2d_iters(min,last) =      -1      80
(PID.TID 0000.0001)      cg2d_last_res =   9.30441767292716E-12
(PID.TID 0000.0001) // =======================================================
(PID.TID 0000.0001) // Begin MONITOR dynamic field statistics
(PID.TID 0000.0001) // =======================================================
(PID.TID 0000.0001) %MON time_tsnumber                =                   865
(PID.TID 0000.0001) %MON time_secondsf                =   8.6500000000000E+04
(PID.TID 0000.0001) %MON dynstat_eta_max              =   5.7963770323583E+00
(PID.TID 0000.0001) %MON dynstat_eta_min              =  -1.4196207940509E+01
(PID.TID 0000.0001) %MON dynstat_eta_mean             =  -2.5063653385030E+00
(PID.TID 0000.0001) %MON dynstat_eta_sd               =   4.9507278329112E+00
(PID.TID 0000.0001) %MON dynstat_eta_del2             =   2.0714610337822E-01
(PID.TID 0000.0001) %MON dynstat_uvel_max             =   3.1883021271248E-03
(PID.TID 0000.0001) %MON dynstat_uvel_min             =  -1.4252776245826E-02
(PID.TID 0000.0001) %MON dynstat_uvel_mean            =  -1.1794388321829E-07
(PID.TID 0000.0001) %MON dynstat_uvel_sd              =   4.2258977472438E-04
(PID.TID 0000.0001) %MON dynstat_uvel_del2            =   6.6480696679435E-07
(PID.TID 0000.0001) %MON dynstat_vvel_max             =   1.1520948939882E-02
(PID.TID 0000.0001) %MON dynstat_vvel_min             =  -5.2977583582337E-03
(PID.TID 0000.0001) %MON dynstat_vvel_mean            =   1.5026162694516E-05
(PID.TID 0000.0001) %MON dynstat_vvel_sd              =   2.8200623925803E-04
(PID.TID 0000.0001) %MON dynstat_vvel_del2            =   5.7788120847172E-07
(PID.TID 0000.0001) %MON dynstat_wvel_max             =   5.3875141879809E-04
(PID.TID 0000.0001) %MON dynstat_wvel_min             =  -5.3649857699525E-04
(PID.TID 0000.0001) %MON dynstat_wvel_mean            =   6.8226806994696E-09
(PID.TID 0000.0001) %MON dynstat_wvel_sd              =   1.5590042594935E-05
(PID.TID 0000.0001) %MON dynstat_wvel_del2            =   5.9200792352451E-08
(PID.TID 0000.0001) %MON dynstat_theta_max            =   1.2000000000000E+00
(PID.TID 0000.0001) %MON dynstat_theta_min            =  -1.0000000000000E+00
(PID.TID 0000.0001) %MON dynstat_theta_mean           =   5.6886911604716E-01
(PID.TID 0000.0001) %MON dynstat_theta_sd             =   8.6845768733076E-01
(PID.TID 0000.0001) %MON dynstat_theta_del2           =   1.8188455716940E-06
(PID.TID 0000.0001) %MON dynstat_salt_max             =   3.4700000000000E+01
(PID.TID 0000.0001) %MON dynstat_salt_min             =   3.4000000000000E+01
(PID.TID 0000.0001) %MON dynstat_salt_mean            =   3.4499161822183E+01
(PID.TID 0000.0001) %MON dynstat_salt_sd              =   2.7631930046706E-01
(PID.TID 0000.0001) %MON dynstat_salt_del2            =   7.1285293039875E-07
(PID.TID 0000.0001) %MON advcfl_uvel_max              =   1.4252776245826E-03
(PID.TID 0000.0001) %MON advcfl_vvel_max              =   1.1520948939882E-03
(PID.TID 0000.0001) %MON advcfl_wvel_max              =   2.6937570939904E-03
(PID.TID 0000.0001) %MON advcfl_W_hf_max              =   2.6937570939904E-03
(PID.TID 0000.0001) %MON pe_b_mean                    =  -8.3059456289777E-01
(PID.TID 0000.0001) %MON ke_max                       =   6.1384469493598E-05
(PID.TID 0000.0001) %MON ke_mean                      =   1.2739437436081E-07
(PID.TID 0000.0001) %MON ke_vol                       =   4.2724922591366E+12
(PID.TID 0000.0001) // =======================================================
(PID.TID 0000.0001) // End MONITOR dynamic field statistics
(PID.TID 0000.0001) // =======================================================
(PID.TID 0000.0001) // =======================================================
(PID.TID 0000.0001) // Begin OBCS MONITOR field statistics
(PID.TID 0000.0001) // =======================================================
(PID.TID 0000.0001) %MON obc_N_vVel_max               =   1.4774918219716E-05
(PID.TID 0000.0001) %MON obc_N_vVel_min               =   1.4774918219715E-05
(PID.TID 0000.0001) %MON obc_N_vVel_mean              =   1.4774918219715E-05
(PID.TID 0000.0001) %MON obc_N_vVel_sd                =   4.8018391866987E-12
(PID.TID 0000.0001) %MON obc_N_vVel_Int               =   9.7514460250121E+02
(PID.TID 0000.0001) // =======================================================
(PID.TID 0000.0001) // End OBCS MONITOR field statistics
(PID.TID 0000.0001) // =======================================================
 cg2d: Sum(rhs),rhsMax =   4.51267973022385E+00  2.99920149252182E+02
(PID.TID 0000.0001)      cg2d_init_res =   6.15996727360458E-06
(PID.TID 0000.0001)      cg2d_iters(min,last) =      -1      80
(PID.TID 0000.0001)      cg2d_last_res =   9.32183792176815E-12
(PID.TID 0000.0001) // =======================================================
(PID.TID 0000.0001) // Begin MONITOR dynamic field statistics
(PID.TID 0000.0001) // =======================================================
(PID.TID 0000.0001) %MON time_tsnumber                =                   866
(PID.TID 0000.0001) %MON time_secondsf                =   8.6600000000000E+04
(PID.TID 0000.0001) %MON dynstat_eta_max              =   5.7963701972359E+00
(PID.TID 0000.0001) %MON dynstat_eta_min              =  -1.4196230959639E+01
(PID.TID 0000.0001) %MON dynstat_eta_mean             =  -2.5063769966964E+00
(PID.TID 0000.0001) %MON dynstat_eta_sd               =   4.9507318551060E+00
(PID.TID 0000.0001) %MON dynstat_eta_del2             =   2.0714612325258E-01
(PID.TID 0000.0001) %MON dynstat_uvel_max             =   3.1970539490160E-03
(PID.TID 0000.0001) %MON dynstat_uvel_min             =  -1.4291675268641E-02
(PID.TID 0000.0001) %MON dynstat_uvel_mean            =  -1.1786544937512E-07
(PID.TID 0000.0001) %MON dynstat_uvel_sd              =   4.2370211495838E-04
(PID.TID 0000.0001) %MON dynstat_uvel_del2            =   6.6619790999155E-07
(PID.TID 0000.0001) %MON dynstat_vvel_max             =   1.1550953714726E-02
(PID.TID 0000.0001) %MON dynstat_vvel_min             =  -5.3081622337343E-03
(PID.TID 0000.0001) %MON dynstat_vvel_mean            =   1.5038586567221E-05
(PID.TID 0000.0001) %MON dynstat_vvel_sd              =   2.8267746138508E-04
(PID.TID 0000.0001) %MON dynstat_vvel_del2            =   5.7906388737386E-07
(PID.TID 0000.0001) %MON dynstat_wvel_max             =   5.4039282122855E-04
(PID.TID 0000.0001) %MON dynstat_wvel_min             =  -5.3801894302987E-04
(PID.TID 0000.0001) %MON dynstat_wvel_mean            =   6.8600406970503E-09
(PID.TID 0000.0001) %MON dynstat_wvel_sd              =   1.5647762165263E-05
(PID.TID 0000.0001) %MON dynstat_wvel_del2            =   5.9719085332036E-08
(PID.TID 0000.0001) %MON dynstat_theta_max            =   1.2000000000000E+00
(PID.TID 0000.0001) %MON dynstat_theta_min            =  -1.0000000000000E+00
(PID.TID 0000.0001) %MON dynstat_theta_mean           =   5.6886854827478E-01
(PID.TID 0000.0001) %MON dynstat_theta_sd             =   8.6845737552616E-01
(PID.TID 0000.0001) %MON dynstat_theta_del2           =   1.8221908416936E-06
(PID.TID 0000.0001) %MON dynstat_salt_max             =   3.4700000000000E+01
(PID.TID 0000.0001) %MON dynstat_salt_min             =   3.4000000000000E+01
(PID.TID 0000.0001) %MON dynstat_salt_mean            =   3.4499161595077E+01
(PID.TID 0000.0001) %MON dynstat_salt_sd              =   2.7631918135842E-01
(PID.TID 0000.0001) %MON dynstat_salt_del2            =   7.1423006351024E-07
(PID.TID 0000.0001) %MON advcfl_uvel_max              =   1.4291675268641E-03
(PID.TID 0000.0001) %MON advcfl_vvel_max              =   1.1550953714726E-03
(PID.TID 0000.0001) %MON advcfl_wvel_max              =   2.7019641061427E-03
(PID.TID 0000.0001) %MON advcfl_W_hf_max              =   2.7019641061427E-03
(PID.TID 0000.0001) %MON pe_b_mean                    =  -8.3059776643146E-01
(PID.TID 0000.0001) %MON ke_max                       =   6.1750809560732E-05
(PID.TID 0000.0001) %MON ke_mean                      =   1.2804541477117E-07
(PID.TID 0000.0001) %MON ke_vol                       =   4.2724921898893E+12
(PID.TID 0000.0001) // =======================================================
(PID.TID 0000.0001) // End MONITOR dynamic field statistics
(PID.TID 0000.0001) // =======================================================
(PID.TID 0000.0001) // =======================================================
(PID.TID 0000.0001) // Begin OBCS MONITOR field statistics
(PID.TID 0000.0001) // =======================================================
(PID.TID 0000.0001) %MON obc_N_vVel_max               =   1.4784465763852E-05
(PID.TID 0000.0001) %MON obc_N_vVel_min               =   1.4784465763852E-05
(PID.TID 0000.0001) %MON obc_N_vVel_mean              =   1.4784465763852E-05
(PID.TID 0000.0001) %MON obc_N_vVel_sd                =  -2.2127081385793E-23
(PID.TID 0000.0001) %MON obc_N_vVel_Int               =   9.7577474041425E+02
(PID.TID 0000.0001) // =======================================================
(PID.TID 0000.0001) // End OBCS MONITOR field statistics
(PID.TID 0000.0001) // =======================================================
 cg2d: Sum(rhs),rhsMax =   4.51269953955691E+00  2.99920227814375E+02
(PID.TID 0000.0001)      cg2d_init_res =   6.17551843220597E-06
(PID.TID 0000.0001)      cg2d_iters(min,last) =      -1      80
(PID.TID 0000.0001)      cg2d_last_res =   9.33146162290289E-12
(PID.TID 0000.0001) // =======================================================
(PID.TID 0000.0001) // Begin MONITOR dynamic field statistics
(PID.TID 0000.0001) // =======================================================
(PID.TID 0000.0001) %MON time_tsnumber                =                   867
(PID.TID 0000.0001) %MON time_secondsf                =   8.6700000000000E+04
(PID.TID 0000.0001) %MON dynstat_eta_max              =   5.7963633860278E+00
(PID.TID 0000.0001) %MON dynstat_eta_min              =  -1.4196253963839E+01
(PID.TID 0000.0001) %MON dynstat_eta_mean             =  -2.5063886554847E+00
(PID.TID 0000.0001) %MON dynstat_eta_sd               =   4.9507358777015E+00
(PID.TID 0000.0001) %MON dynstat_eta_del2             =   2.0714614317869E-01
(PID.TID 0000.0001) %MON dynstat_uvel_max             =   3.2058286977943E-03
(PID.TID 0000.0001) %MON dynstat_uvel_min             =  -1.4330647489114E-02
(PID.TID 0000.0001) %MON dynstat_uvel_mean            =  -1.1776406626507E-07
(PID.TID 0000.0001) %MON dynstat_uvel_sd              =   4.2481773779301E-04
(PID.TID 0000.0001) %MON dynstat_uvel_del2            =   6.6759261773284E-07
(PID.TID 0000.0001) %MON dynstat_vvel_max             =   1.1581010922665E-02
(PID.TID 0000.0001) %MON dynstat_vvel_min             =  -5.3185788636370E-03
(PID.TID 0000.0001) %MON dynstat_vvel_mean            =   1.5051566415988E-05
(PID.TID 0000.0001) %MON dynstat_vvel_sd              =   2.8335356505369E-04
(PID.TID 0000.0001) %MON dynstat_vvel_del2            =   5.8028606434120E-07
(PID.TID 0000.0001) %MON dynstat_wvel_max             =   5.4203789235557E-04
(PID.TID 0000.0001) %MON dynstat_wvel_min             =  -5.3954311916424E-04
(PID.TID 0000.0001) %MON dynstat_wvel_mean            =   6.8986540082745E-09
(PID.TID 0000.0001) %MON dynstat_wvel_sd              =   1.5720224474841E-05
(PID.TID 0000.0001) %MON dynstat_wvel_del2            =   6.0371389528533E-08
(PID.TID 0000.0001) %MON dynstat_theta_max            =   1.2000000000000E+00
(PID.TID 0000.0001) %MON dynstat_theta_min            =  -1.0000000000000E+00
(PID.TID 0000.0001) %MON dynstat_theta_mean           =   5.6886797927848E-01
(PID.TID 0000.0001) %MON dynstat_theta_sd             =   8.6845706305130E-01
(PID.TID 0000.0001) %MON dynstat_theta_del2           =   1.8255316355731E-06
(PID.TID 0000.0001) %MON dynstat_salt_max             =   3.4700000000000E+01
(PID.TID 0000.0001) %MON dynstat_salt_min             =   3.4000000000000E+01
(PID.TID 0000.0001) %MON dynstat_salt_mean            =   3.4499161367482E+01
(PID.TID 0000.0001) %MON dynstat_salt_sd              =   2.7631906198944E-01
(PID.TID 0000.0001) %MON dynstat_salt_del2            =   7.1560689518524E-07
(PID.TID 0000.0001) %MON advcfl_uvel_max              =   1.4330647489114E-03
(PID.TID 0000.0001) %MON advcfl_vvel_max              =   1.1581010922665E-03
(PID.TID 0000.0001) %MON advcfl_wvel_max              =   2.7101894617779E-03
(PID.TID 0000.0001) %MON advcfl_W_hf_max              =   2.7101894617779E-03
(PID.TID 0000.0001) %MON pe_b_mean                    =  -8.3060097002702E-01
(PID.TID 0000.0001) %MON ke_max                       =   6.2119103551033E-05
(PID.TID 0000.0001) %MON ke_mean                      =   1.2870087690698E-07
(PID.TID 0000.0001) %MON ke_vol                       =   4.2724921206396E+12
(PID.TID 0000.0001) // =======================================================
(PID.TID 0000.0001) // End MONITOR dynamic field statistics
(PID.TID 0000.0001) // =======================================================
(PID.TID 0000.0001) // =======================================================
(PID.TID 0000.0001) // Begin OBCS MONITOR field statistics
(PID.TID 0000.0001) // =======================================================
(PID.TID 0000.0001) %MON obc_N_vVel_max               =   1.4794222515813E-05
(PID.TID 0000.0001) %MON obc_N_vVel_min               =   1.4794222515812E-05
(PID.TID 0000.0001) %MON obc_N_vVel_mean              =   1.4794222515812E-05
(PID.TID 0000.0001) %MON obc_N_vVel_sd                =   1.8189894035459E-12
(PID.TID 0000.0001) %MON obc_N_vVel_Int               =   9.7641868604362E+02
(PID.TID 0000.0001) // =======================================================
(PID.TID 0000.0001) // End OBCS MONITOR field statistics
(PID.TID 0000.0001) // =======================================================
 cg2d: Sum(rhs),rhsMax =   4.51271934627014E+00  2.99920306681975E+02
(PID.TID 0000.0001)      cg2d_init_res =   6.19237617231420E-06
(PID.TID 0000.0001)      cg2d_iters(min,last) =      -1      80
(PID.TID 0000.0001)      cg2d_last_res =   9.33446962325957E-12
(PID.TID 0000.0001) // =======================================================
(PID.TID 0000.0001) // Begin MONITOR dynamic field statistics
(PID.TID 0000.0001) // =======================================================
(PID.TID 0000.0001) %MON time_tsnumber                =                   868
(PID.TID 0000.0001) %MON time_secondsf                =   8.6800000000000E+04
(PID.TID 0000.0001) %MON dynstat_eta_max              =   5.7963565825011E+00
(PID.TID 0000.0001) %MON dynstat_eta_min              =  -1.4196276967144E+01
(PID.TID 0000.0001) %MON dynstat_eta_mean             =  -2.5064003153760E+00
(PID.TID 0000.0001) %MON dynstat_eta_sd               =   4.9507399015921E+00
(PID.TID 0000.0001) %MON dynstat_eta_del2             =   2.0714616315744E-01
(PID.TID 0000.0001) %MON dynstat_uvel_max             =   3.2146246659721E-03
(PID.TID 0000.0001) %MON dynstat_uvel_min             =  -1.4369692283100E-02
(PID.TID 0000.0001) %MON dynstat_uvel_mean            =  -1.1766365676893E-07
(PID.TID 0000.0001) %MON dynstat_uvel_sd              =   4.2593665431358E-04
(PID.TID 0000.0001) %MON dynstat_uvel_del2            =   6.6899112211361E-07
(PID.TID 0000.0001) %MON dynstat_vvel_max             =   1.1611121299615E-02
(PID.TID 0000.0001) %MON dynstat_vvel_min             =  -5.3290075109889E-03
(PID.TID 0000.0001) %MON dynstat_vvel_mean            =   1.5065076956500E-05
(PID.TID 0000.0001) %MON dynstat_vvel_sd              =   2.8403335654280E-04
(PID.TID 0000.0001) %MON dynstat_vvel_del2            =   5.8152913883538E-07
(PID.TID 0000.0001) %MON dynstat_wvel_max             =   5.4368673209300E-04
(PID.TID 0000.0001) %MON dynstat_wvel_min             =  -5.4107107364949E-04
(PID.TID 0000.0001) %MON dynstat_wvel_mean            =   6.9362555975545E-09
(PID.TID 0000.0001) %MON dynstat_wvel_sd              =   1.5801515270988E-05
(PID.TID 0000.0001) %MON dynstat_wvel_del2            =   6.1090715685350E-08
(PID.TID 0000.0001) %MON dynstat_theta_max            =   1.2000000000000E+00
(PID.TID 0000.0001) %MON dynstat_theta_min            =  -1.0000000000000E+00
(PID.TID 0000.0001) %MON dynstat_theta_mean           =   5.6886740904441E-01
(PID.TID 0000.0001) %MON dynstat_theta_sd             =   8.6845674990229E-01
(PID.TID 0000.0001) %MON dynstat_theta_del2           =   1.8288861479510E-06
(PID.TID 0000.0001) %MON dynstat_salt_max             =   3.4700000000000E+01
(PID.TID 0000.0001) %MON dynstat_salt_min             =   3.4000000000000E+01
(PID.TID 0000.0001) %MON dynstat_salt_mean            =   3.4499161139391E+01
(PID.TID 0000.0001) %MON dynstat_salt_sd              =   2.7631894235875E-01
(PID.TID 0000.0001) %MON dynstat_salt_del2            =   7.1698802092342E-07
(PID.TID 0000.0001) %MON advcfl_uvel_max              =   1.4369692283100E-03
(PID.TID 0000.0001) %MON advcfl_vvel_max              =   1.1611121299615E-03
(PID.TID 0000.0001) %MON advcfl_wvel_max              =   2.7184336604650E-03
(PID.TID 0000.0001) %MON advcfl_W_hf_max              =   2.7184336604650E-03
(PID.TID 0000.0001) %MON pe_b_mean                    =  -8.3060417375677E-01
(PID.TID 0000.0001) %MON ke_max                       =   6.2489346050846E-05
(PID.TID 0000.0001) %MON ke_mean                      =   1.2936044665038E-07
(PID.TID 0000.0001) %MON ke_vol                       =   4.2724920513864E+12
(PID.TID 0000.0001) // =======================================================
(PID.TID 0000.0001) // End MONITOR dynamic field statistics
(PID.TID 0000.0001) // =======================================================
(PID.TID 0000.0001) // =======================================================
(PID.TID 0000.0001) // Begin OBCS MONITOR field statistics
(PID.TID 0000.0001) // =======================================================
(PID.TID 0000.0001) %MON obc_N_vVel_max               =   1.4804460247413E-05
(PID.TID 0000.0001) %MON obc_N_vVel_min               =   1.4804460247413E-05
(PID.TID 0000.0001) %MON obc_N_vVel_mean              =   1.4804460247413E-05
(PID.TID 0000.0001) %MON obc_N_vVel_sd                =   3.6627633775395E-12
(PID.TID 0000.0001) %MON obc_N_vVel_Int               =   9.7709437632927E+02
(PID.TID 0000.0001) // =======================================================
(PID.TID 0000.0001) // End OBCS MONITOR field statistics
(PID.TID 0000.0001) // =======================================================
 cg2d: Sum(rhs),rhsMax =   4.51273915168659E+00  2.99920385861055E+02
(PID.TID 0000.0001)      cg2d_init_res =   6.20998288623735E-06
(PID.TID 0000.0001)      cg2d_iters(min,last) =      -1      80
(PID.TID 0000.0001)      cg2d_last_res =   9.33615349292444E-12
(PID.TID 0000.0001) // =======================================================
(PID.TID 0000.0001) // Begin MONITOR dynamic field statistics
(PID.TID 0000.0001) // =======================================================
(PID.TID 0000.0001) %MON time_tsnumber                =                   869
(PID.TID 0000.0001) %MON time_secondsf                =   8.6900000000000E+04
(PID.TID 0000.0001) %MON dynstat_eta_max              =   5.7963497749282E+00
(PID.TID 0000.0001) %MON dynstat_eta_min              =  -1.4196299983778E+01
(PID.TID 0000.0001) %MON dynstat_eta_mean             =  -2.5064119771558E+00
(PID.TID 0000.0001) %MON dynstat_eta_sd               =   4.9507439275789E+00
(PID.TID 0000.0001) %MON dynstat_eta_del2             =   2.0714618318887E-01
(PID.TID 0000.0001) %MON dynstat_uvel_max             =   3.2234411242662E-03
(PID.TID 0000.0001) %MON dynstat_uvel_min             =  -1.4408809864197E-02
(PID.TID 0000.0001) %MON dynstat_uvel_mean            =  -1.1758762361736E-07
(PID.TID 0000.0001) %MON dynstat_uvel_sd              =   4.2705887163755E-04
(PID.TID 0000.0001) %MON dynstat_uvel_del2            =   6.7039345852232E-07
(PID.TID 0000.0001) %MON dynstat_vvel_max             =   1.1641285316024E-02
(PID.TID 0000.0001) %MON dynstat_vvel_min             =  -5.3394477651887E-03
(PID.TID 0000.0001) %MON dynstat_vvel_mean            =   1.5079179570564E-05
(PID.TID 0000.0001) %MON dynstat_vvel_sd              =   2.8471552128602E-04
(PID.TID 0000.0001) %MON dynstat_vvel_del2            =   5.8277318975967E-07
(PID.TID 0000.0001) %MON dynstat_wvel_max             =   5.4533936415747E-04
(PID.TID 0000.0001) %MON dynstat_wvel_min             =  -5.4260282728598E-04
(PID.TID 0000.0001) %MON dynstat_wvel_mean            =   6.9714873228184E-09
(PID.TID 0000.0001) %MON dynstat_wvel_sd              =   1.5885278610713E-05
(PID.TID 0000.0001) %MON dynstat_wvel_del2            =   6.1806911457764E-08
(PID.TID 0000.0001) %MON dynstat_theta_max            =   1.2000000000000E+00
(PID.TID 0000.0001) %MON dynstat_theta_min            =  -1.0000000000000E+00
(PID.TID 0000.0001) %MON dynstat_theta_mean           =   5.6886683755927E-01
(PID.TID 0000.0001) %MON dynstat_theta_sd             =   8.6845643608283E-01
(PID.TID 0000.0001) %MON dynstat_theta_del2           =   1.8322728900172E-06
(PID.TID 0000.0001) %MON dynstat_salt_max             =   3.4700000000000E+01
(PID.TID 0000.0001) %MON dynstat_salt_min             =   3.4000000000000E+01
(PID.TID 0000.0001) %MON dynstat_salt_mean            =   3.4499160910801E+01
(PID.TID 0000.0001) %MON dynstat_salt_sd              =   2.7631882246733E-01
(PID.TID 0000.0001) %MON dynstat_salt_del2            =   7.1837813836314E-07
(PID.TID 0000.0001) %MON advcfl_uvel_max              =   1.4408809864197E-03
(PID.TID 0000.0001) %MON advcfl_vvel_max              =   1.1641285316024E-03
(PID.TID 0000.0001) %MON advcfl_wvel_max              =   2.7266968207873E-03
(PID.TID 0000.0001) %MON advcfl_W_hf_max              =   2.7266968207873E-03
(PID.TID 0000.0001) %MON pe_b_mean                    =  -8.3060737771587E-01
(PID.TID 0000.0001) %MON ke_max                       =   6.2861543275232E-05
(PID.TID 0000.0001) %MON ke_mean                      =   1.3002377201335E-07
(PID.TID 0000.0001) %MON ke_vol                       =   4.2724919821267E+12
(PID.TID 0000.0001) // =======================================================
(PID.TID 0000.0001) // End MONITOR dynamic field statistics
(PID.TID 0000.0001) // =======================================================
(PID.TID 0000.0001) // =======================================================
(PID.TID 0000.0001) // Begin OBCS MONITOR field statistics
(PID.TID 0000.0001) // =======================================================
(PID.TID 0000.0001) %MON obc_N_vVel_max               =   1.4815428768922E-05
(PID.TID 0000.0001) %MON obc_N_vVel_min               =   1.4815428768922E-05
(PID.TID 0000.0001) %MON obc_N_vVel_mean              =   1.4815428768922E-05
(PID.TID 0000.0001) %MON obc_N_vVel_sd                =   4.5332403800278E-12
(PID.TID 0000.0001) %MON obc_N_vVel_Int               =   9.7781829874883E+02
(PID.TID 0000.0001) // =======================================================
(PID.TID 0000.0001) // End OBCS MONITOR field statistics
(PID.TID 0000.0001) // =======================================================
 cg2d: Sum(rhs),rhsMax =   4.51275895754497E+00  2.99920465356270E+02
(PID.TID 0000.0001)      cg2d_init_res =   6.22775227777981E-06
(PID.TID 0000.0001)      cg2d_iters(min,last) =      -1      80
(PID.TID 0000.0001)      cg2d_last_res =   9.34259697963101E-12
(PID.TID 0000.0001) // =======================================================
(PID.TID 0000.0001) // Begin MONITOR dynamic field statistics
(PID.TID 0000.0001) // =======================================================
(PID.TID 0000.0001) %MON time_tsnumber                =                   870
(PID.TID 0000.0001) %MON time_secondsf                =   8.7000000000000E+04
(PID.TID 0000.0001) %MON dynstat_eta_max              =   5.7963429596567E+00
(PID.TID 0000.0001) %MON dynstat_eta_min              =  -1.4196323022098E+01
(PID.TID 0000.0001) %MON dynstat_eta_mean             =  -2.5064236418288E+00
(PID.TID 0000.0001) %MON dynstat_eta_sd               =   4.9507479563387E+00
(PID.TID 0000.0001) %MON dynstat_eta_del2             =   2.0714620327307E-01
(PID.TID 0000.0001) %MON dynstat_uvel_max             =   3.2322778798566E-03
(PID.TID 0000.0001) %MON dynstat_uvel_min             =  -1.4448000572717E-02
(PID.TID 0000.0001) %MON dynstat_uvel_mean            =  -1.1755041391364E-07
(PID.TID 0000.0001) %MON dynstat_uvel_sd              =   4.2818439543979E-04
(PID.TID 0000.0001) %MON dynstat_uvel_del2            =   6.7179966411378E-07
(PID.TID 0000.0001) %MON dynstat_vvel_max             =   1.1671503181272E-02
(PID.TID 0000.0001) %MON dynstat_vvel_min             =  -5.3498995063590E-03
(PID.TID 0000.0001) %MON dynstat_vvel_mean            =   1.5093948881864E-05
(PID.TID 0000.0001) %MON dynstat_vvel_sd              =   2.8539872175888E-04
(PID.TID 0000.0001) %MON dynstat_vvel_del2            =   5.8399894033650E-07
(PID.TID 0000.0001) %MON dynstat_wvel_max             =   5.4699579297505E-04
(PID.TID 0000.0001) %MON dynstat_wvel_min             =  -5.4413839581875E-04
(PID.TID 0000.0001) %MON dynstat_wvel_mean            =   7.0034867625259E-09
(PID.TID 0000.0001) %MON dynstat_wvel_sd              =   1.5965356662952E-05
(PID.TID 0000.0001) %MON dynstat_wvel_del2            =   6.2453800529267E-08
(PID.TID 0000.0001) %MON dynstat_theta_max            =   1.2000000000000E+00
(PID.TID 0000.0001) %MON dynstat_theta_min            =  -1.0000000000000E+00
(PID.TID 0000.0001) %MON dynstat_theta_mean           =   5.6886626481052E-01
(PID.TID 0000.0001) %MON dynstat_theta_sd             =   8.6845612160849E-01
(PID.TID 0000.0001) %MON dynstat_theta_del2           =   1.8357084202872E-06
(PID.TID 0000.0001) %MON dynstat_salt_max             =   3.4700000000000E+01
(PID.TID 0000.0001) %MON dynstat_salt_min             =   3.4000000000000E+01
(PID.TID 0000.0001) %MON dynstat_salt_mean            =   3.4499160681707E+01
(PID.TID 0000.0001) %MON dynstat_salt_sd              =   2.7631870232026E-01
(PID.TID 0000.0001) %MON dynstat_salt_del2            =   7.1978175097609E-07
(PID.TID 0000.0001) %MON advcfl_uvel_max              =   1.4448000572717E-03
(PID.TID 0000.0001) %MON advcfl_vvel_max              =   1.1671503181272E-03
(PID.TID 0000.0001) %MON advcfl_wvel_max              =   2.7349789648752E-03
(PID.TID 0000.0001) %MON advcfl_W_hf_max              =   2.7349789648752E-03
(PID.TID 0000.0001) %MON pe_b_mean                    =  -8.3061058202385E-01
(PID.TID 0000.0001) %MON ke_max                       =   6.3235706538467E-05
(PID.TID 0000.0001) %MON ke_mean                      =   1.3069049056170E-07
(PID.TID 0000.0001) %MON ke_vol                       =   4.2724919128557E+12
(PID.TID 0000.0001) // =======================================================
(PID.TID 0000.0001) // End MONITOR dynamic field statistics
(PID.TID 0000.0001) // =======================================================
(PID.TID 0000.0001) // =======================================================
(PID.TID 0000.0001) // Begin OBCS MONITOR field statistics
(PID.TID 0000.0001) // =======================================================
(PID.TID 0000.0001) %MON obc_N_vVel_max               =   1.4827325599449E-05
(PID.TID 0000.0001) %MON obc_N_vVel_min               =   1.4827325599449E-05
(PID.TID 0000.0001) %MON obc_N_vVel_mean              =   1.4827325599449E-05
(PID.TID 0000.0001) %MON obc_N_vVel_sd                =  -1.6440214674491E-23
(PID.TID 0000.0001) %MON obc_N_vVel_Int               =   9.7860348956364E+02
(PID.TID 0000.0001) // =======================================================
(PID.TID 0000.0001) // End OBCS MONITOR field statistics
(PID.TID 0000.0001) // =======================================================
 cg2d: Sum(rhs),rhsMax =   4.51277876592987E+00  2.99920545170440E+02
(PID.TID 0000.0001)      cg2d_init_res =   6.24514707523202E-06
(PID.TID 0000.0001)      cg2d_iters(min,last) =      -1      80
(PID.TID 0000.0001)      cg2d_last_res =   9.35785924845433E-12
(PID.TID 0000.0001) // =======================================================
(PID.TID 0000.0001) // Begin MONITOR dynamic field statistics
(PID.TID 0000.0001) // =======================================================
(PID.TID 0000.0001) %MON time_tsnumber                =                   871
(PID.TID 0000.0001) %MON time_secondsf                =   8.7100000000000E+04
(PID.TID 0000.0001) %MON dynstat_eta_max              =   5.7963361382030E+00
(PID.TID 0000.0001) %MON dynstat_eta_min              =  -1.4196346084562E+01
(PID.TID 0000.0001) %MON dynstat_eta_mean             =  -2.5064353105764E+00
(PID.TID 0000.0001) %MON dynstat_eta_sd               =   4.9507519884095E+00
(PID.TID 0000.0001) %MON dynstat_eta_del2             =   2.0714622341045E-01
(PID.TID 0000.0001) %MON dynstat_uvel_max             =   3.2411348142460E-03
(PID.TID 0000.0001) %MON dynstat_uvel_min             =  -1.4487264782129E-02
(PID.TID 0000.0001) %MON dynstat_uvel_mean            =  -1.1755407149941E-07
(PID.TID 0000.0001) %MON dynstat_uvel_sd              =   4.2931323037983E-04
(PID.TID 0000.0001) %MON dynstat_uvel_del2            =   6.7320977949269E-07
(PID.TID 0000.0001) %MON dynstat_vvel_max             =   1.1701774964141E-02
(PID.TID 0000.0001) %MON dynstat_vvel_min             =  -5.3603627645904E-03
(PID.TID 0000.0001) %MON dynstat_vvel_mean            =   1.5109426961168E-05
(PID.TID 0000.0001) %MON dynstat_vvel_sd              =   2.8608169353009E-04
(PID.TID 0000.0001) %MON dynstat_vvel_del2            =   5.8518962270652E-07
(PID.TID 0000.0001) %MON dynstat_wvel_max             =   5.4865602592091E-04
(PID.TID 0000.0001) %MON dynstat_wvel_min             =  -5.4567777927174E-04
(PID.TID 0000.0001) %MON dynstat_wvel_mean            =   7.0314916214471E-09
(PID.TID 0000.0001) %MON dynstat_wvel_sd              =   1.6036365339783E-05
(PID.TID 0000.0001) %MON dynstat_wvel_del2            =   6.2974969273445E-08
(PID.TID 0000.0001) %MON dynstat_theta_max            =   1.2000000000000E+00
(PID.TID 0000.0001) %MON dynstat_theta_min            =  -1.0000000000000E+00
(PID.TID 0000.0001) %MON dynstat_theta_mean           =   5.6886569078692E-01
(PID.TID 0000.0001) %MON dynstat_theta_sd             =   8.6845580649718E-01
(PID.TID 0000.0001) %MON dynstat_theta_del2           =   1.8392063845289E-06
(PID.TID 0000.0001) %MON dynstat_salt_max             =   3.4700000000000E+01
(PID.TID 0000.0001) %MON dynstat_salt_min             =   3.4000000000000E+01
(PID.TID 0000.0001) %MON dynstat_salt_mean            =   3.4499160452105E+01
(PID.TID 0000.0001) %MON dynstat_salt_sd              =   2.7631858192294E-01
(PID.TID 0000.0001) %MON dynstat_salt_del2            =   7.2120234988437E-07
(PID.TID 0000.0001) %MON advcfl_uvel_max              =   1.4487264782129E-03
(PID.TID 0000.0001) %MON advcfl_vvel_max              =   1.1701774964141E-03
(PID.TID 0000.0001) %MON advcfl_wvel_max              =   2.7432801296045E-03
(PID.TID 0000.0001) %MON advcfl_W_hf_max              =   2.7432801296045E-03
(PID.TID 0000.0001) %MON pe_b_mean                    =  -8.3061378681845E-01
(PID.TID 0000.0001) %MON ke_max                       =   6.3611849090025E-05
(PID.TID 0000.0001) %MON ke_mean                      =   1.3136025626964E-07
(PID.TID 0000.0001) %MON ke_vol                       =   4.2724918435675E+12
(PID.TID 0000.0001) // =======================================================
(PID.TID 0000.0001) // End MONITOR dynamic field statistics
(PID.TID 0000.0001) // =======================================================
(PID.TID 0000.0001) // =======================================================
(PID.TID 0000.0001) // Begin OBCS MONITOR field statistics
(PID.TID 0000.0001) // =======================================================
(PID.TID 0000.0001) %MON obc_N_vVel_max               =   1.4840307797238E-05
(PID.TID 0000.0001) %MON obc_N_vVel_min               =   1.4840307797238E-05
(PID.TID 0000.0001) %MON obc_N_vVel_mean              =   1.4840307797238E-05
(PID.TID 0000.0001) %MON obc_N_vVel_sd                =   3.7292055519303E-12
(PID.TID 0000.0001) %MON obc_N_vVel_Int               =   9.7946031461771E+02
(PID.TID 0000.0001) // =======================================================
(PID.TID 0000.0001) // End OBCS MONITOR field statistics
(PID.TID 0000.0001) // =======================================================
 cg2d: Sum(rhs),rhsMax =   4.51279857909943E+00  2.99920625304329E+02
(PID.TID 0000.0001)      cg2d_init_res =   6.26167287260696E-06
(PID.TID 0000.0001)      cg2d_iters(min,last) =      -1      80
(PID.TID 0000.0001)      cg2d_last_res =   9.38313930765144E-12
(PID.TID 0000.0001) // =======================================================
(PID.TID 0000.0001) // Begin MONITOR dynamic field statistics
(PID.TID 0000.0001) // =======================================================
(PID.TID 0000.0001) %MON time_tsnumber                =                   872
(PID.TID 0000.0001) %MON time_secondsf                =   8.7200000000000E+04
(PID.TID 0000.0001) %MON dynstat_eta_max              =   5.7963293139360E+00
(PID.TID 0000.0001) %MON dynstat_eta_min              =  -1.4196369169969E+01
(PID.TID 0000.0001) %MON dynstat_eta_mean             =  -2.5064469846592E+00
(PID.TID 0000.0001) %MON dynstat_eta_sd               =   4.9507560241315E+00
(PID.TID 0000.0001) %MON dynstat_eta_del2             =   2.0714624360125E-01
(PID.TID 0000.0001) %MON dynstat_uvel_max             =   3.2500117700351E-03
(PID.TID 0000.0001) %MON dynstat_uvel_min             =  -1.4526602892694E-02
(PID.TID 0000.0001) %MON dynstat_uvel_mean            =  -1.1758960223528E-07
(PID.TID 0000.0001) %MON dynstat_uvel_sd              =   4.3044538031871E-04
(PID.TID 0000.0001) %MON dynstat_uvel_del2            =   6.7462384507872E-07
(PID.TID 0000.0001) %MON dynstat_vvel_max             =   1.1732100667014E-02
(PID.TID 0000.0001) %MON dynstat_vvel_min             =  -5.3708376418191E-03
(PID.TID 0000.0001) %MON dynstat_vvel_mean            =   1.5125596347745E-05
(PID.TID 0000.0001) %MON dynstat_vvel_sd              =   2.8676332887006E-04
(PID.TID 0000.0001) %MON dynstat_vvel_del2            =   5.8633255311490E-07
(PID.TID 0000.0001) %MON dynstat_wvel_max             =   5.5032007471320E-04
(PID.TID 0000.0001) %MON dynstat_wvel_min             =  -5.4722096740314E-04
(PID.TID 0000.0001) %MON dynstat_wvel_mean            =   7.0548386739011E-09
(PID.TID 0000.0001) %MON dynstat_wvel_sd              =   1.6094157917524E-05
(PID.TID 0000.0001) %MON dynstat_wvel_del2            =   6.3327976612219E-08
(PID.TID 0000.0001) %MON dynstat_theta_max            =   1.2000000000000E+00
(PID.TID 0000.0001) %MON dynstat_theta_min            =  -1.0000000000000E+00
(PID.TID 0000.0001) %MON dynstat_theta_mean           =   5.6886511547830E-01
(PID.TID 0000.0001) %MON dynstat_theta_sd             =   8.6845549076488E-01
(PID.TID 0000.0001) %MON dynstat_theta_del2           =   1.8427759078231E-06
(PID.TID 0000.0001) %MON dynstat_salt_max             =   3.4700000000000E+01
(PID.TID 0000.0001) %MON dynstat_salt_min             =   3.4000000000000E+01
(PID.TID 0000.0001) %MON dynstat_salt_mean            =   3.4499160221992E+01
(PID.TID 0000.0001) %MON dynstat_salt_sd              =   2.7631846128062E-01
(PID.TID 0000.0001) %MON dynstat_salt_del2            =   7.2264216752450E-07
(PID.TID 0000.0001) %MON advcfl_uvel_max              =   1.4526602892694E-03
(PID.TID 0000.0001) %MON advcfl_vvel_max              =   1.1732100667014E-03
(PID.TID 0000.0001) %MON advcfl_wvel_max              =   2.7516003735660E-03
(PID.TID 0000.0001) %MON advcfl_W_hf_max              =   2.7516003735660E-03
(PID.TID 0000.0001) %MON pe_b_mean                    =  -8.3061699223760E-01
(PID.TID 0000.0001) %MON ke_max                       =   6.3989984787600E-05
(PID.TID 0000.0001) %MON ke_mean                      =   1.3203276341904E-07
(PID.TID 0000.0001) %MON ke_vol                       =   4.2724917742552E+12
(PID.TID 0000.0001) // =======================================================
(PID.TID 0000.0001) // End MONITOR dynamic field statistics
(PID.TID 0000.0001) // =======================================================
(PID.TID 0000.0001) // =======================================================
(PID.TID 0000.0001) // Begin OBCS MONITOR field statistics
(PID.TID 0000.0001) // =======================================================
(PID.TID 0000.0001) %MON obc_N_vVel_max               =   1.4854448766596E-05
(PID.TID 0000.0001) %MON obc_N_vVel_min               =   1.4854448766596E-05
(PID.TID 0000.0001) %MON obc_N_vVel_mean              =   1.4854448766596E-05
(PID.TID 0000.0001) %MON obc_N_vVel_sd                =  -2.9726803263624E-24
(PID.TID 0000.0001) %MON obc_N_vVel_Int               =   9.8039361859533E+02
(PID.TID 0000.0001) // =======================================================
(PID.TID 0000.0001) // End OBCS MONITOR field statistics
(PID.TID 0000.0001) // =======================================================
 cg2d: Sum(rhs),rhsMax =   4.51281839919858E+00  2.99920705756809E+02
(PID.TID 0000.0001)      cg2d_init_res =   6.27698263306860E-06
(PID.TID 0000.0001)      cg2d_iters(min,last) =      -1      80
(PID.TID 0000.0001)      cg2d_last_res =   9.41671692679488E-12
(PID.TID 0000.0001) // =======================================================
(PID.TID 0000.0001) // Begin MONITOR dynamic field statistics
(PID.TID 0000.0001) // =======================================================
(PID.TID 0000.0001) %MON time_tsnumber                =                   873
(PID.TID 0000.0001) %MON time_secondsf                =   8.7300000000000E+04
(PID.TID 0000.0001) %MON dynstat_eta_max              =   5.7963224903965E+00
(PID.TID 0000.0001) %MON dynstat_eta_min              =  -1.4196392275460E+01
(PID.TID 0000.0001) %MON dynstat_eta_mean             =  -2.5064586652592E+00
(PID.TID 0000.0001) %MON dynstat_eta_sd               =   4.9507600636100E+00
(PID.TID 0000.0001) %MON dynstat_eta_del2             =   2.0714626384551E-01
(PID.TID 0000.0001) %MON dynstat_uvel_max             =   3.2589085781254E-03
(PID.TID 0000.0001) %MON dynstat_uvel_min             =  -1.4566015272862E-02
(PID.TID 0000.0001) %MON dynstat_uvel_mean            =  -1.1764093676738E-07
(PID.TID 0000.0001) %MON dynstat_uvel_sd              =   4.3158084876248E-04
(PID.TID 0000.0001) %MON dynstat_uvel_del2            =   6.7604189988307E-07
(PID.TID 0000.0001) %MON dynstat_vvel_max             =   1.1762480277640E-02
(PID.TID 0000.0001) %MON dynstat_vvel_min             =  -5.3813242470744E-03
(PID.TID 0000.0001) %MON dynstat_vvel_mean            =   1.5142366742610E-05
(PID.TID 0000.0001) %MON dynstat_vvel_sd              =   2.8744273965812E-04
(PID.TID 0000.0001) %MON dynstat_vvel_del2            =   5.8742027348276E-07
(PID.TID 0000.0001) %MON dynstat_wvel_max             =   5.5198795213011E-04
(PID.TID 0000.0001) %MON dynstat_wvel_min             =  -5.4876794854199E-04
(PID.TID 0000.0001) %MON dynstat_wvel_mean            =   7.0733220289204E-09
(PID.TID 0000.0001) %MON dynstat_wvel_sd              =   1.6136147322673E-05
(PID.TID 0000.0001) %MON dynstat_wvel_del2            =   6.3487037684581E-08
(PID.TID 0000.0001) %MON dynstat_theta_max            =   1.2000000000000E+00
(PID.TID 0000.0001) %MON dynstat_theta_min            =  -1.0000000000000E+00
(PID.TID 0000.0001) %MON dynstat_theta_mean           =   5.6886453887619E-01
(PID.TID 0000.0001) %MON dynstat_theta_sd             =   8.6845517442652E-01
(PID.TID 0000.0001) %MON dynstat_theta_del2           =   1.8464201994039E-06
(PID.TID 0000.0001) %MON dynstat_salt_max             =   3.4700000000000E+01
(PID.TID 0000.0001) %MON dynstat_salt_min             =   3.4000000000000E+01
(PID.TID 0000.0001) %MON dynstat_salt_mean            =   3.4499159991366E+01
(PID.TID 0000.0001) %MON dynstat_salt_sd              =   2.7631834039778E-01
(PID.TID 0000.0001) %MON dynstat_salt_del2            =   7.2410186149886E-07
(PID.TID 0000.0001) %MON advcfl_uvel_max              =   1.4566015272862E-03
(PID.TID 0000.0001) %MON advcfl_vvel_max              =   1.1762480277640E-03
(PID.TID 0000.0001) %MON advcfl_wvel_max              =   2.7599397606506E-03
(PID.TID 0000.0001) %MON advcfl_W_hf_max              =   2.7599397606506E-03
(PID.TID 0000.0001) %MON pe_b_mean                    =  -8.3062019839780E-01
(PID.TID 0000.0001) %MON ke_max                       =   6.4370127067930E-05
(PID.TID 0000.0001) %MON ke_mean                      =   1.3270776520681E-07
(PID.TID 0000.0001) %MON ke_vol                       =   4.2724917049111E+12
(PID.TID 0000.0001) // =======================================================
(PID.TID 0000.0001) // End MONITOR dynamic field statistics
(PID.TID 0000.0001) // =======================================================
(PID.TID 0000.0001) // =======================================================
(PID.TID 0000.0001) // Begin OBCS MONITOR field statistics
(PID.TID 0000.0001) // =======================================================
(PID.TID 0000.0001) %MON obc_N_vVel_max               =   1.4869676020863E-05
(PID.TID 0000.0001) %MON obc_N_vVel_min               =   1.4869676020862E-05
(PID.TID 0000.0001) %MON obc_N_vVel_mean              =   1.4869676020862E-05
(PID.TID 0000.0001) %MON obc_N_vVel_sd                =   3.5480494567144E-12
(PID.TID 0000.0001) %MON obc_N_vVel_Int               =   9.8139861737692E+02
(PID.TID 0000.0001) // =======================================================
(PID.TID 0000.0001) // End OBCS MONITOR field statistics
(PID.TID 0000.0001) // =======================================================
 cg2d: Sum(rhs),rhsMax =   4.51283822793068E+00  2.99920786525012E+02
(PID.TID 0000.0001)      cg2d_init_res =   6.29087251172786E-06
(PID.TID 0000.0001)      cg2d_iters(min,last) =      -1      80
(PID.TID 0000.0001)      cg2d_last_res =   9.45483863994297E-12
(PID.TID 0000.0001) // =======================================================
(PID.TID 0000.0001) // Begin MONITOR dynamic field statistics
(PID.TID 0000.0001) // =======================================================
(PID.TID 0000.0001) %MON time_tsnumber                =                   874
(PID.TID 0000.0001) %MON time_secondsf                =   8.7400000000000E+04
(PID.TID 0000.0001) %MON dynstat_eta_max              =   5.7963156706304E+00
(PID.TID 0000.0001) %MON dynstat_eta_min              =  -1.4196415397720E+01
(PID.TID 0000.0001) %MON dynstat_eta_mean             =  -2.5064703532984E+00
(PID.TID 0000.0001) %MON dynstat_eta_sd               =   4.9507641067337E+00
(PID.TID 0000.0001) %MON dynstat_eta_del2             =   2.0714628414314E-01
(PID.TID 0000.0001) %MON dynstat_uvel_max             =   3.2678251025473E-03
(PID.TID 0000.0001) %MON dynstat_uvel_min             =  -1.4605502186928E-02
(PID.TID 0000.0001) %MON dynstat_uvel_mean            =  -1.1768976465205E-07
(PID.TID 0000.0001) %MON dynstat_uvel_sd              =   4.3271963931859E-04
(PID.TID 0000.0001) %MON dynstat_uvel_del2            =   6.7746398192903E-07
(PID.TID 0000.0001) %MON dynstat_vvel_max             =   1.1792913805011E-02
(PID.TID 0000.0001) %MON dynstat_vvel_min             =  -5.3918226496199E-03
(PID.TID 0000.0001) %MON dynstat_vvel_mean            =   1.5159578633371E-05
(PID.TID 0000.0001) %MON dynstat_vvel_sd              =   2.8811929453673E-04
(PID.TID 0000.0001) %MON dynstat_vvel_del2            =   5.8845116406362E-07
(PID.TID 0000.0001) %MON dynstat_wvel_max             =   5.5365966906301E-04
(PID.TID 0000.0001) %MON dynstat_wvel_min             =  -5.5031871663952E-04
(PID.TID 0000.0001) %MON dynstat_wvel_mean            =   7.0875036955994E-09
(PID.TID 0000.0001) %MON dynstat_wvel_sd              =   1.6161473086033E-05
(PID.TID 0000.0001) %MON dynstat_wvel_del2            =   6.3444338892677E-08
(PID.TID 0000.0001) %MON dynstat_theta_max            =   1.2000000000000E+00
(PID.TID 0000.0001) %MON dynstat_theta_min            =  -1.0000000000000E+00
(PID.TID 0000.0001) %MON dynstat_theta_mean           =   5.6886396097399E-01
(PID.TID 0000.0001) %MON dynstat_theta_sd             =   8.6845485748916E-01
(PID.TID 0000.0001) %MON dynstat_theta_del2           =   1.8501364687882E-06
(PID.TID 0000.0001) %MON dynstat_salt_max             =   3.4700000000000E+01
(PID.TID 0000.0001) %MON dynstat_salt_min             =   3.4000000000000E+01
(PID.TID 0000.0001) %MON dynstat_salt_mean            =   3.4499159760222E+01
(PID.TID 0000.0001) %MON dynstat_salt_sd              =   2.7631821927660E-01
(PID.TID 0000.0001) %MON dynstat_salt_del2            =   7.2558089900763E-07
(PID.TID 0000.0001) %MON advcfl_uvel_max              =   1.4605502186928E-03
(PID.TID 0000.0001) %MON advcfl_vvel_max              =   1.1792913805011E-03
(PID.TID 0000.0001) %MON advcfl_wvel_max              =   2.7682983453150E-03
(PID.TID 0000.0001) %MON advcfl_W_hf_max              =   2.7682983453150E-03
(PID.TID 0000.0001) %MON pe_b_mean                    =  -8.3062340537612E-01
(PID.TID 0000.0001) %MON ke_max                       =   6.4752288053971E-05
(PID.TID 0000.0001) %MON ke_mean                      =   1.3338508545561E-07
(PID.TID 0000.0001) %MON ke_vol                       =   4.2724916355284E+12
(PID.TID 0000.0001) // =======================================================
(PID.TID 0000.0001) // End MONITOR dynamic field statistics
(PID.TID 0000.0001) // =======================================================
(PID.TID 0000.0001) // =======================================================
(PID.TID 0000.0001) // Begin OBCS MONITOR field statistics
(PID.TID 0000.0001) // =======================================================
(PID.TID 0000.0001) %MON obc_N_vVel_max               =   1.4885755455272E-05
(PID.TID 0000.0001) %MON obc_N_vVel_min               =   1.4885755455271E-05
(PID.TID 0000.0001) %MON obc_N_vVel_mean              =   1.4885755455271E-05
(PID.TID 0000.0001) %MON obc_N_vVel_sd                =   4.4001359311468E-12
(PID.TID 0000.0001) %MON obc_N_vVel_Int               =   9.8245986004790E+02
(PID.TID 0000.0001) // =======================================================
(PID.TID 0000.0001) // End OBCS MONITOR field statistics
(PID.TID 0000.0001) // =======================================================
 cg2d: Sum(rhs),rhsMax =   4.51285806633148E+00  2.99920867604705E+02
(PID.TID 0000.0001)      cg2d_init_res =   6.30330609243722E-06
(PID.TID 0000.0001)      cg2d_iters(min,last) =      -1      80
(PID.TID 0000.0001)      cg2d_last_res =   9.49279365954472E-12
(PID.TID 0000.0001) // =======================================================
(PID.TID 0000.0001) // Begin MONITOR dynamic field statistics
(PID.TID 0000.0001) // =======================================================
(PID.TID 0000.0001) %MON time_tsnumber                =                   875
(PID.TID 0000.0001) %MON time_secondsf                =   8.7500000000000E+04
(PID.TID 0000.0001) %MON dynstat_eta_max              =   5.7963088568404E+00
(PID.TID 0000.0001) %MON dynstat_eta_min              =  -1.4196438533745E+01
(PID.TID 0000.0001) %MON dynstat_eta_mean             =  -2.5064820493167E+00
(PID.TID 0000.0001) %MON dynstat_eta_sd               =   4.9507681532500E+00
(PID.TID 0000.0001) %MON dynstat_eta_del2             =   2.0714630449422E-01
(PID.TID 0000.0001) %MON dynstat_uvel_max             =   3.2767612677773E-03
(PID.TID 0000.0001) %MON dynstat_uvel_min             =  -1.4645063751697E-02
(PID.TID 0000.0001) %MON dynstat_uvel_mean            =  -1.1772013203392E-07
(PID.TID 0000.0001) %MON dynstat_uvel_sd              =   4.3386175567450E-04
(PID.TID 0000.0001) %MON dynstat_uvel_del2            =   6.7889012435452E-07
(PID.TID 0000.0001) %MON dynstat_vvel_max             =   1.1823401295886E-02
(PID.TID 0000.0001) %MON dynstat_vvel_min             =  -5.4023328602497E-03
(PID.TID 0000.0001) %MON dynstat_vvel_mean            =   1.5177026570040E-05
(PID.TID 0000.0001) %MON dynstat_vvel_sd              =   2.8879262773114E-04
(PID.TID 0000.0001) %MON dynstat_vvel_del2            =   5.8942948315779E-07
(PID.TID 0000.0001) %MON dynstat_wvel_max             =   5.5533523293183E-04
(PID.TID 0000.0001) %MON dynstat_wvel_min             =  -5.5187327407338E-04
(PID.TID 0000.0001) %MON dynstat_wvel_mean            =   7.0986632319474E-09
(PID.TID 0000.0001) %MON dynstat_wvel_sd              =   1.6171010033156E-05
(PID.TID 0000.0001) %MON dynstat_wvel_del2            =   6.3210129313675E-08
(PID.TID 0000.0001) %MON dynstat_theta_max            =   1.2000000000000E+00
(PID.TID 0000.0001) %MON dynstat_theta_min            =  -1.0000000000000E+00
(PID.TID 0000.0001) %MON dynstat_theta_mean           =   5.6886338176672E-01
(PID.TID 0000.0001) %MON dynstat_theta_sd             =   8.6845453995517E-01
(PID.TID 0000.0001) %MON dynstat_theta_del2           =   1.8539161441925E-06
(PID.TID 0000.0001) %MON dynstat_salt_max             =   3.4700000000000E+01
(PID.TID 0000.0001) %MON dynstat_salt_min             =   3.4000000000000E+01
(PID.TID 0000.0001) %MON dynstat_salt_mean            =   3.4499159528561E+01
(PID.TID 0000.0001) %MON dynstat_salt_sd              =   2.7631809791785E-01
(PID.TID 0000.0001) %MON dynstat_salt_del2            =   7.2707705707544E-07
(PID.TID 0000.0001) %MON advcfl_uvel_max              =   1.4645063751697E-03
(PID.TID 0000.0001) %MON advcfl_vvel_max              =   1.1823401295886E-03
(PID.TID 0000.0001) %MON advcfl_wvel_max              =   2.7766761646591E-03
(PID.TID 0000.0001) %MON advcfl_W_hf_max              =   2.7766761646591E-03
(PID.TID 0000.0001) %MON pe_b_mean                    =  -8.3062661320356E-01
(PID.TID 0000.0001) %MON ke_max                       =   6.5145143737687E-05
(PID.TID 0000.0001) %MON ke_mean                      =   1.3406462238115E-07
(PID.TID 0000.0001) %MON ke_vol                       =   4.2724915661014E+12
(PID.TID 0000.0001) // =======================================================
(PID.TID 0000.0001) // End MONITOR dynamic field statistics
(PID.TID 0000.0001) // =======================================================
(PID.TID 0000.0001) // =======================================================
(PID.TID 0000.0001) // Begin OBCS MONITOR field statistics
(PID.TID 0000.0001) // =======================================================
(PID.TID 0000.0001) %MON obc_N_vVel_max               =   1.4902342107939E-05
(PID.TID 0000.0001) %MON obc_N_vVel_min               =   1.4902342107939E-05
(PID.TID 0000.0001) %MON obc_N_vVel_mean              =   1.4902342107939E-05
(PID.TID 0000.0001) %MON obc_N_vVel_sd                =   3.1423667135380E-12
(PID.TID 0000.0001) %MON obc_N_vVel_Int               =   9.8355457912399E+02
(PID.TID 0000.0001) // =======================================================
(PID.TID 0000.0001) // End OBCS MONITOR field statistics
(PID.TID 0000.0001) // =======================================================
 cg2d: Sum(rhs),rhsMax =   4.51287791471568E+00  2.99920948990633E+02
(PID.TID 0000.0001)      cg2d_init_res =   6.31438263794421E-06
(PID.TID 0000.0001)      cg2d_iters(min,last) =      -1      80
(PID.TID 0000.0001)      cg2d_last_res =   9.52634068868056E-12
(PID.TID 0000.0001) // =======================================================
(PID.TID 0000.0001) // Begin MONITOR dynamic field statistics
(PID.TID 0000.0001) // =======================================================
(PID.TID 0000.0001) %MON time_tsnumber                =                   876
(PID.TID 0000.0001) %MON time_secondsf                =   8.7600000000000E+04
(PID.TID 0000.0001) %MON dynstat_eta_max              =   5.7963020501629E+00
(PID.TID 0000.0001) %MON dynstat_eta_min              =  -1.4196461681371E+01
(PID.TID 0000.0001) %MON dynstat_eta_mean             =  -2.5064937534452E+00
(PID.TID 0000.0001) %MON dynstat_eta_sd               =   4.9507722028428E+00
(PID.TID 0000.0001) %MON dynstat_eta_del2             =   2.0714632489870E-01
(PID.TID 0000.0001) %MON dynstat_uvel_max             =   3.2857170641485E-03
(PID.TID 0000.0001) %MON dynstat_uvel_min             =  -1.4684699935891E-02
(PID.TID 0000.0001) %MON dynstat_uvel_mean            =  -1.1772191702104E-07
(PID.TID 0000.0001) %MON dynstat_uvel_sd              =   4.3500720139600E-04
(PID.TID 0000.0001) %MON dynstat_uvel_del2            =   6.8032035708232E-07
(PID.TID 0000.0001) %MON dynstat_vvel_max             =   1.1853942831646E-02
(PID.TID 0000.0001) %MON dynstat_vvel_min             =  -5.4128548384167E-03
(PID.TID 0000.0001) %MON dynstat_vvel_mean            =   1.5194496365364E-05
(PID.TID 0000.0001) %MON dynstat_vvel_sd              =   2.8946262006964E-04
(PID.TID 0000.0001) %MON dynstat_vvel_del2            =   5.9036483977430E-07
(PID.TID 0000.0001) %MON dynstat_wvel_max             =   5.5701464760023E-04
(PID.TID 0000.0001) %MON dynstat_wvel_min             =  -5.5343163106512E-04
(PID.TID 0000.0001) %MON dynstat_wvel_mean            =   7.1084165628968E-09
(PID.TID 0000.0001) %MON dynstat_wvel_sd              =   1.6167224657007E-05
(PID.TID 0000.0001) %MON dynstat_wvel_del2            =   6.2811674322247E-08
(PID.TID 0000.0001) %MON dynstat_theta_max            =   1.2000000000000E+00
(PID.TID 0000.0001) %MON dynstat_theta_min            =  -1.0000000000000E+00
(PID.TID 0000.0001) %MON dynstat_theta_mean           =   5.6886280125139E-01
(PID.TID 0000.0001) %MON dynstat_theta_sd             =   8.6845422182282E-01
(PID.TID 0000.0001) %MON dynstat_theta_del2           =   1.8577456861204E-06
(PID.TID 0000.0001) %MON dynstat_salt_max             =   3.4700000000000E+01
(PID.TID 0000.0001) %MON dynstat_salt_min             =   3.4000000000000E+01
(PID.TID 0000.0001) %MON dynstat_salt_mean            =   3.4499159296380E+01
(PID.TID 0000.0001) %MON dynstat_salt_sd              =   2.7631797632087E-01
(PID.TID 0000.0001) %MON dynstat_salt_del2            =   7.2858683463300E-07
(PID.TID 0000.0001) %MON advcfl_uvel_max              =   1.4684699935891E-03
(PID.TID 0000.0001) %MON advcfl_vvel_max              =   1.1853942831646E-03
(PID.TID 0000.0001) %MON advcfl_wvel_max              =   2.7850732380012E-03
(PID.TID 0000.0001) %MON advcfl_W_hf_max              =   2.7850732380012E-03
(PID.TID 0000.0001) %MON pe_b_mean                    =  -8.3062982186806E-01
(PID.TID 0000.0001) %MON ke_max                       =   6.5563850339604E-05
(PID.TID 0000.0001) %MON ke_mean                      =   1.3474634447234E-07
(PID.TID 0000.0001) %MON ke_vol                       =   4.2724914966271E+12
(PID.TID 0000.0001) // =======================================================
(PID.TID 0000.0001) // End MONITOR dynamic field statistics
(PID.TID 0000.0001) // =======================================================
(PID.TID 0000.0001) // =======================================================
(PID.TID 0000.0001) // Begin OBCS MONITOR field statistics
(PID.TID 0000.0001) // =======================================================
(PID.TID 0000.0001) %MON obc_N_vVel_max               =   1.4919066704269E-05
(PID.TID 0000.0001) %MON obc_N_vVel_min               =   1.4919066704269E-05
(PID.TID 0000.0001) %MON obc_N_vVel_mean              =   1.4919066704269E-05
(PID.TID 0000.0001) %MON obc_N_vVel_sd                =   4.0258626562776E-12
(PID.TID 0000.0001) %MON obc_N_vVel_Int               =   9.8465840248176E+02
(PID.TID 0000.0001) // =======================================================
(PID.TID 0000.0001) // End OBCS MONITOR field statistics
(PID.TID 0000.0001) // =======================================================
 cg2d: Sum(rhs),rhsMax =   4.51289777277579E+00  2.99921030676718E+02
(PID.TID 0000.0001)      cg2d_init_res =   6.32436601971660E-06
(PID.TID 0000.0001)      cg2d_iters(min,last) =      -1      80
(PID.TID 0000.0001)      cg2d_last_res =   9.55266322517484E-12
(PID.TID 0000.0001) // =======================================================
(PID.TID 0000.0001) // Begin MONITOR dynamic field statistics
(PID.TID 0000.0001) // =======================================================
(PID.TID 0000.0001) %MON time_tsnumber                =                   877
(PID.TID 0000.0001) %MON time_secondsf                =   8.7700000000000E+04
(PID.TID 0000.0001) %MON dynstat_eta_max              =   5.7962952506358E+00
(PID.TID 0000.0001) %MON dynstat_eta_min              =  -1.4196484839557E+01
(PID.TID 0000.0001) %MON dynstat_eta_mean             =  -2.5065054654622E+00
(PID.TID 0000.0001) %MON dynstat_eta_sd               =   4.9507762552023E+00
(PID.TID 0000.0001) %MON dynstat_eta_del2             =   2.0714634535667E-01
(PID.TID 0000.0001) %MON dynstat_uvel_max             =   3.2946925381090E-03
(PID.TID 0000.0001) %MON dynstat_uvel_min             =  -1.4724410594994E-02
(PID.TID 0000.0001) %MON dynstat_uvel_mean            =  -1.1769257362522E-07
(PID.TID 0000.0001) %MON dynstat_uvel_sd              =   4.3615597940721E-04
(PID.TID 0000.0001) %MON dynstat_uvel_del2            =   6.8175470706354E-07
(PID.TID 0000.0001) %MON dynstat_vvel_max             =   1.1884538510249E-02
(PID.TID 0000.0001) %MON dynstat_vvel_min             =  -5.4233885156103E-03
(PID.TID 0000.0001) %MON dynstat_vvel_mean            =   1.5211802884676E-05
(PID.TID 0000.0001) %MON dynstat_vvel_sd              =   2.9012935484986E-04
(PID.TID 0000.0001) %MON dynstat_vvel_del2            =   5.9127116186620E-07
(PID.TID 0000.0001) %MON dynstat_wvel_max             =   5.5869791437901E-04
(PID.TID 0000.0001) %MON dynstat_wvel_min             =  -5.5499380274435E-04
(PID.TID 0000.0001) %MON dynstat_wvel_mean            =   7.1182491521350E-09
(PID.TID 0000.0001) %MON dynstat_wvel_sd              =   1.6153891951098E-05
(PID.TID 0000.0001) %MON dynstat_wvel_del2            =   6.2291074758569E-08
(PID.TID 0000.0001) %MON dynstat_theta_max            =   1.2000000000000E+00
(PID.TID 0000.0001) %MON dynstat_theta_min            =  -1.0000000000000E+00
(PID.TID 0000.0001) %MON dynstat_theta_mean           =   5.6886221942608E-01
(PID.TID 0000.0001) %MON dynstat_theta_sd             =   8.6845390309145E-01
(PID.TID 0000.0001) %MON dynstat_theta_del2           =   1.8616074991122E-06
(PID.TID 0000.0001) %MON dynstat_salt_max             =   3.4700000000000E+01
(PID.TID 0000.0001) %MON dynstat_salt_min             =   3.4000000000000E+01
(PID.TID 0000.0001) %MON dynstat_salt_mean            =   3.4499159063680E+01
(PID.TID 0000.0001) %MON dynstat_salt_sd              =   2.7631785448517E-01
(PID.TID 0000.0001) %MON dynstat_salt_del2            =   7.3010577188152E-07
(PID.TID 0000.0001) %MON advcfl_uvel_max              =   1.4724410594994E-03
(PID.TID 0000.0001) %MON advcfl_vvel_max              =   1.1884538510249E-03
(PID.TID 0000.0001) %MON advcfl_wvel_max              =   2.7934895718951E-03
(PID.TID 0000.0001) %MON advcfl_W_hf_max              =   2.7934895718951E-03
(PID.TID 0000.0001) %MON pe_b_mean                    =  -8.3063303132259E-01
(PID.TID 0000.0001) %MON ke_max                       =   6.5985024938760E-05
(PID.TID 0000.0001) %MON ke_mean                      =   1.3543027886557E-07
(PID.TID 0000.0001) %MON ke_vol                       =   4.2724914271045E+12
(PID.TID 0000.0001) // =======================================================
(PID.TID 0000.0001) // End MONITOR dynamic field statistics
(PID.TID 0000.0001) // =======================================================
(PID.TID 0000.0001) // =======================================================
(PID.TID 0000.0001) // Begin OBCS MONITOR field statistics
(PID.TID 0000.0001) // =======================================================
(PID.TID 0000.0001) %MON obc_N_vVel_max               =   1.4935613468537E-05
(PID.TID 0000.0001) %MON obc_N_vVel_min               =   1.4935613468537E-05
(PID.TID 0000.0001) %MON obc_N_vVel_mean              =   1.4935613468537E-05
(PID.TID 0000.0001) %MON obc_N_vVel_sd                =  -7.4187761188350E-24
(PID.TID 0000.0001) %MON obc_N_vVel_Int               =   9.8575048892347E+02
(PID.TID 0000.0001) // =======================================================
(PID.TID 0000.0001) // End OBCS MONITOR field statistics
(PID.TID 0000.0001) // =======================================================
 cg2d: Sum(rhs),rhsMax =   4.51291763977735E+00  2.99921112656066E+02
(PID.TID 0000.0001)      cg2d_init_res =   6.33362882945414E-06
(PID.TID 0000.0001)      cg2d_iters(min,last) =      -1      80
(PID.TID 0000.0001)      cg2d_last_res =   9.57083601637015E-12
(PID.TID 0000.0001) // =======================================================
(PID.TID 0000.0001) // Begin MONITOR dynamic field statistics
(PID.TID 0000.0001) // =======================================================
(PID.TID 0000.0001) %MON time_tsnumber                =                   878
(PID.TID 0000.0001) %MON time_secondsf                =   8.7800000000000E+04
(PID.TID 0000.0001) %MON dynstat_eta_max              =   5.7962884574194E+00
(PID.TID 0000.0001) %MON dynstat_eta_min              =  -1.4196508008392E+01
(PID.TID 0000.0001) %MON dynstat_eta_mean             =  -2.5065171849022E+00
(PID.TID 0000.0001) %MON dynstat_eta_sd               =   4.9507803100630E+00
(PID.TID 0000.0001) %MON dynstat_eta_del2             =   2.0714636586800E-01
(PID.TID 0000.0001) %MON dynstat_uvel_max             =   3.3036877721706E-03
(PID.TID 0000.0001) %MON dynstat_uvel_min             =  -1.4764195525071E-02
(PID.TID 0000.0001) %MON dynstat_uvel_mean            =  -1.1763686116337E-07
(PID.TID 0000.0001) %MON dynstat_uvel_sd              =   4.3730809139187E-04
(PID.TID 0000.0001) %MON dynstat_uvel_del2            =   6.8319319844737E-07
(PID.TID 0000.0001) %MON dynstat_vvel_max             =   1.1915188421313E-02
(PID.TID 0000.0001) %MON dynstat_vvel_min             =  -5.4339338246603E-03
(PID.TID 0000.0001) %MON dynstat_vvel_mean            =   1.5228815093169E-05
(PID.TID 0000.0001) %MON dynstat_vvel_sd              =   2.9079305398056E-04
(PID.TID 0000.0001) %MON dynstat_vvel_del2            =   5.9216526823874E-07
(PID.TID 0000.0001) %MON dynstat_wvel_max             =   5.6038503359736E-04
(PID.TID 0000.0001) %MON dynstat_wvel_min             =  -5.5655980519078E-04
(PID.TID 0000.0001) %MON dynstat_wvel_mean            =   7.1291906585362E-09
(PID.TID 0000.0001) %MON dynstat_wvel_sd              =   1.6135693735239E-05
(PID.TID 0000.0001) %MON dynstat_wvel_del2            =   6.1701918948632E-08
(PID.TID 0000.0001) %MON dynstat_theta_max            =   1.2000000000000E+00
(PID.TID 0000.0001) %MON dynstat_theta_min            =  -1.0000000000000E+00
(PID.TID 0000.0001) %MON dynstat_theta_mean           =   5.6886163628992E-01
(PID.TID 0000.0001) %MON dynstat_theta_sd             =   8.6845358375870E-01
(PID.TID 0000.0001) %MON dynstat_theta_del2           =   1.8654822083666E-06
(PID.TID 0000.0001) %MON dynstat_salt_max             =   3.4700000000000E+01
(PID.TID 0000.0001) %MON dynstat_salt_min             =   3.4000000000000E+01
(PID.TID 0000.0001) %MON dynstat_salt_mean            =   3.4499158830458E+01
(PID.TID 0000.0001) %MON dynstat_salt_sd              =   2.7631773241011E-01
(PID.TID 0000.0001) %MON dynstat_salt_del2            =   7.3162884899091E-07
(PID.TID 0000.0001) %MON advcfl_uvel_max              =   1.4764195525071E-03
(PID.TID 0000.0001) %MON advcfl_vvel_max              =   1.1915188421313E-03
(PID.TID 0000.0001) %MON advcfl_wvel_max              =   2.8019251679868E-03
(PID.TID 0000.0001) %MON advcfl_W_hf_max              =   2.8019251679868E-03
(PID.TID 0000.0001) %MON pe_b_mean                    =  -8.3063624149515E-01
(PID.TID 0000.0001) %MON ke_max                       =   6.6408677425703E-05
(PID.TID 0000.0001) %MON ke_mean                      =   1.3611649357036E-07
(PID.TID 0000.0001) %MON ke_vol                       =   4.2724913575352E+12
(PID.TID 0000.0001) // =======================================================
(PID.TID 0000.0001) // End MONITOR dynamic field statistics
(PID.TID 0000.0001) // =======================================================
(PID.TID 0000.0001) // =======================================================
(PID.TID 0000.0001) // Begin OBCS MONITOR field statistics
(PID.TID 0000.0001) // =======================================================
(PID.TID 0000.0001) %MON obc_N_vVel_max               =   1.4951763129471E-05
(PID.TID 0000.0001) %MON obc_N_vVel_min               =   1.4951763129471E-05
(PID.TID 0000.0001) %MON obc_N_vVel_mean              =   1.4951763129471E-05
(PID.TID 0000.0001) %MON obc_N_vVel_sd                =  -2.1015557437675E-23
(PID.TID 0000.0001) %MON obc_N_vVel_Int               =   9.8681636654510E+02
(PID.TID 0000.0001) // =======================================================
(PID.TID 0000.0001) // End OBCS MONITOR field statistics
(PID.TID 0000.0001) // =======================================================
 cg2d: Sum(rhs),rhsMax =   4.51293751476958E+00  2.99921194920836E+02
(PID.TID 0000.0001)      cg2d_init_res =   6.34259631149705E-06
(PID.TID 0000.0001)      cg2d_iters(min,last) =      -1      80
(PID.TID 0000.0001)      cg2d_last_res =   9.58195317671071E-12
(PID.TID 0000.0001) // =======================================================
(PID.TID 0000.0001) // Begin MONITOR dynamic field statistics
(PID.TID 0000.0001) // =======================================================
(PID.TID 0000.0001) %MON time_tsnumber                =                   879
(PID.TID 0000.0001) %MON time_secondsf                =   8.7900000000000E+04
(PID.TID 0000.0001) %MON dynstat_eta_max              =   5.7962816692088E+00
(PID.TID 0000.0001) %MON dynstat_eta_min              =  -1.4196531188756E+01
(PID.TID 0000.0001) %MON dynstat_eta_mean             =  -2.5065289111718E+00
(PID.TID 0000.0001) %MON dynstat_eta_sd               =   4.9507843672223E+00
(PID.TID 0000.0001) %MON dynstat_eta_del2             =   2.0714638643259E-01
(PID.TID 0000.0001) %MON dynstat_uvel_max             =   3.3127028629210E-03
(PID.TID 0000.0001) %MON dynstat_uvel_min             =  -1.4804054517082E-02
(PID.TID 0000.0001) %MON dynstat_uvel_mean            =  -1.1756481167770E-07
(PID.TID 0000.0001) %MON dynstat_uvel_sd              =   4.3846353730679E-04
(PID.TID 0000.0001) %MON dynstat_uvel_del2            =   6.8463585371196E-07
(PID.TID 0000.0001) %MON dynstat_vvel_max             =   1.1945892622083E-02
(PID.TID 0000.0001) %MON dynstat_vvel_min             =  -5.4444907253330E-03
(PID.TID 0000.0001) %MON dynstat_vvel_mean            =   1.5245461856205E-05
(PID.TID 0000.0001) %MON dynstat_vvel_sd              =   2.9145400160938E-04
(PID.TID 0000.0001) %MON dynstat_vvel_del2            =   5.9306518708915E-07
(PID.TID 0000.0001) %MON dynstat_wvel_max             =   5.6207600611028E-04
(PID.TID 0000.0001) %MON dynstat_wvel_min             =  -5.5812965180138E-04
(PID.TID 0000.0001) %MON dynstat_wvel_mean            =   7.1417085425848E-09
(PID.TID 0000.0001) %MON dynstat_wvel_sd              =   1.6117728710562E-05
(PID.TID 0000.0001) %MON dynstat_wvel_del2            =   6.1104756426300E-08
(PID.TID 0000.0001) %MON dynstat_theta_max            =   1.2000000000000E+00
(PID.TID 0000.0001) %MON dynstat_theta_min            =  -1.0000000000000E+00
(PID.TID 0000.0001) %MON dynstat_theta_mean           =   5.6886105184335E-01
(PID.TID 0000.0001) %MON dynstat_theta_sd             =   8.6845326382168E-01
(PID.TID 0000.0001) %MON dynstat_theta_del2           =   1.8693503147753E-06
(PID.TID 0000.0001) %MON dynstat_salt_max             =   3.4700000000000E+01
(PID.TID 0000.0001) %MON dynstat_salt_min             =   3.4000000000000E+01
(PID.TID 0000.0001) %MON dynstat_salt_mean            =   3.4499158596716E+01
(PID.TID 0000.0001) %MON dynstat_salt_sd              =   2.7631761009458E-01
(PID.TID 0000.0001) %MON dynstat_salt_del2            =   7.3315096211986E-07
(PID.TID 0000.0001) %MON advcfl_uvel_max              =   1.4804054517082E-03
(PID.TID 0000.0001) %MON advcfl_vvel_max              =   1.1945892622083E-03
(PID.TID 0000.0001) %MON advcfl_wvel_max              =   2.8103800305514E-03
(PID.TID 0000.0001) %MON advcfl_W_hf_max              =   2.8103800305514E-03
(PID.TID 0000.0001) %MON pe_b_mean                    =  -8.3063945229823E-01
(PID.TID 0000.0001) %MON ke_max                       =   6.6834817699977E-05
(PID.TID 0000.0001) %MON ke_mean                      =   1.3680507554309E-07
(PID.TID 0000.0001) %MON ke_vol                       =   4.2724912879217E+12
(PID.TID 0000.0001) // =======================================================
(PID.TID 0000.0001) // End MONITOR dynamic field statistics
(PID.TID 0000.0001) // =======================================================
(PID.TID 0000.0001) // =======================================================
(PID.TID 0000.0001) // Begin OBCS MONITOR field statistics
(PID.TID 0000.0001) // =======================================================
(PID.TID 0000.0001) %MON obc_N_vVel_max               =   1.4967399963397E-05
(PID.TID 0000.0001) %MON obc_N_vVel_min               =   1.4967399963397E-05
(PID.TID 0000.0001) %MON obc_N_vVel_mean              =   1.4967399963397E-05
(PID.TID 0000.0001) %MON obc_N_vVel_sd                =   3.7978891415355E-12
(PID.TID 0000.0001) %MON obc_N_vVel_Int               =   9.8784839758418E+02
(PID.TID 0000.0001) // =======================================================
(PID.TID 0000.0001) // End OBCS MONITOR field statistics
(PID.TID 0000.0001) // =======================================================
 cg2d: Sum(rhs),rhsMax =   4.51295739676950E+00  2.99921277461636E+02
(PID.TID 0000.0001)      cg2d_init_res =   6.35172985979975E-06
(PID.TID 0000.0001)      cg2d_iters(min,last) =      -1      80
(PID.TID 0000.0001)      cg2d_last_res =   9.58819876019523E-12
(PID.TID 0000.0001) // =======================================================
(PID.TID 0000.0001) // Begin MONITOR dynamic field statistics
(PID.TID 0000.0001) // =======================================================
(PID.TID 0000.0001) %MON time_tsnumber                =                   880
(PID.TID 0000.0001) %MON time_secondsf                =   8.8000000000000E+04
(PID.TID 0000.0001) %MON dynstat_eta_max              =   5.7962748847256E+00
(PID.TID 0000.0001) %MON dynstat_eta_min              =  -1.4196554381871E+01
(PID.TID 0000.0001) %MON dynstat_eta_mean             =  -2.5065406436464E+00
(PID.TID 0000.0001) %MON dynstat_eta_sd               =   4.9507884265338E+00
(PID.TID 0000.0001) %MON dynstat_eta_del2             =   2.0714640705033E-01
(PID.TID 0000.0001) %MON dynstat_uvel_max             =   3.3217379028585E-03
(PID.TID 0000.0001) %MON dynstat_uvel_min             =  -1.4843987396791E-02
(PID.TID 0000.0001) %MON dynstat_uvel_mean            =  -1.1748862552621E-07
(PID.TID 0000.0001) %MON dynstat_uvel_sd              =   4.3962231502871E-04
(PID.TID 0000.0001) %MON dynstat_uvel_del2            =   6.8608269464585E-07
(PID.TID 0000.0001) %MON dynstat_vvel_max             =   1.1976651122561E-02
(PID.TID 0000.0001) %MON dynstat_vvel_min             =  -5.4550592195337E-03
(PID.TID 0000.0001) %MON dynstat_vvel_mean            =   1.5261720711068E-05
(PID.TID 0000.0001) %MON dynstat_vvel_sd              =   2.9211246350783E-04
(PID.TID 0000.0001) %MON dynstat_vvel_del2            =   5.9398838841435E-07
(PID.TID 0000.0001) %MON dynstat_wvel_max             =   5.6377083430301E-04
(PID.TID 0000.0001) %MON dynstat_wvel_min             =  -5.5970335089869E-04
(PID.TID 0000.0001) %MON dynstat_wvel_mean            =   7.1557676080220E-09
(PID.TID 0000.0001) %MON dynstat_wvel_sd              =   1.6104975239124E-05
(PID.TID 0000.0001) %MON dynstat_wvel_del2            =   6.0561510466094E-08
(PID.TID 0000.0001) %MON dynstat_theta_max            =   1.2000000000000E+00
(PID.TID 0000.0001) %MON dynstat_theta_min            =  -1.0000000000000E+00
(PID.TID 0000.0001) %MON dynstat_theta_mean           =   5.6886046608795E-01
(PID.TID 0000.0001) %MON dynstat_theta_sd             =   8.6845294327081E-01
(PID.TID 0000.0001) %MON dynstat_theta_del2           =   1.8731934755348E-06
(PID.TID 0000.0001) %MON dynstat_salt_max             =   3.4700000000000E+01
(PID.TID 0000.0001) %MON dynstat_salt_min             =   3.4000000000000E+01
(PID.TID 0000.0001) %MON dynstat_salt_mean            =   3.4499158362452E+01
(PID.TID 0000.0001) %MON dynstat_salt_sd              =   2.7631748753544E-01
(PID.TID 0000.0001) %MON dynstat_salt_del2            =   7.3466738123657E-07
(PID.TID 0000.0001) %MON advcfl_uvel_max              =   1.4843987396791E-03
(PID.TID 0000.0001) %MON advcfl_vvel_max              =   1.1976651122561E-03
(PID.TID 0000.0001) %MON advcfl_wvel_max              =   2.8188541715151E-03
(PID.TID 0000.0001) %MON advcfl_W_hf_max              =   2.8188541715151E-03
(PID.TID 0000.0001) %MON pe_b_mean                    =  -8.3064266363569E-01
(PID.TID 0000.0001) %MON ke_max                       =   6.7263456186120E-05
(PID.TID 0000.0001) %MON ke_mean                      =   1.3749610701360E-07
(PID.TID 0000.0001) %MON ke_vol                       =   4.2724912182676E+12
(PID.TID 0000.0001) // =======================================================
(PID.TID 0000.0001) // End MONITOR dynamic field statistics
(PID.TID 0000.0001) // =======================================================
(PID.TID 0000.0001) // =======================================================
(PID.TID 0000.0001) // Begin OBCS MONITOR field statistics
(PID.TID 0000.0001) // =======================================================
(PID.TID 0000.0001) %MON obc_N_vVel_max               =   1.4982495636281E-05
(PID.TID 0000.0001) %MON obc_N_vVel_min               =   1.4982495636280E-05
(PID.TID 0000.0001) %MON obc_N_vVel_mean              =   1.4982495636281E-05
(PID.TID 0000.0001) %MON obc_N_vVel_sd                =  -1.0701649174905E-23
(PID.TID 0000.0001) %MON obc_N_vVel_Int               =   9.8884471199452E+02
(PID.TID 0000.0001) // =======================================================
(PID.TID 0000.0001) // End OBCS MONITOR field statistics
(PID.TID 0000.0001) // =======================================================
 cg2d: Sum(rhs),rhsMax =   4.51297728488915E+00  2.99921360267284E+02
(PID.TID 0000.0001)      cg2d_init_res =   6.36144186993762E-06
(PID.TID 0000.0001)      cg2d_iters(min,last) =      -1      80
(PID.TID 0000.0001)      cg2d_last_res =   9.59248318606126E-12
(PID.TID 0000.0001) // =======================================================
(PID.TID 0000.0001) // Begin MONITOR dynamic field statistics
(PID.TID 0000.0001) // =======================================================
(PID.TID 0000.0001) %MON time_tsnumber                =                   881
(PID.TID 0000.0001) %MON time_secondsf                =   8.8100000000000E+04
(PID.TID 0000.0001) %MON dynstat_eta_max              =   5.7962681031300E+00
(PID.TID 0000.0001) %MON dynstat_eta_min              =  -1.4196577588800E+01
(PID.TID 0000.0001) %MON dynstat_eta_mean             =  -2.5065523817395E+00
(PID.TID 0000.0001) %MON dynstat_eta_sd               =   4.9507924878964E+00
(PID.TID 0000.0001) %MON dynstat_eta_del2             =   2.0714642772112E-01
(PID.TID 0000.0001) %MON dynstat_uvel_max             =   3.3307929695994E-03
(PID.TID 0000.0001) %MON dynstat_uvel_min             =  -1.4883994043394E-02
(PID.TID 0000.0001) %MON dynstat_uvel_mean            =  -1.1741939216562E-07
(PID.TID 0000.0001) %MON dynstat_uvel_sd              =   4.4078442012264E-04
(PID.TID 0000.0001) %MON dynstat_uvel_del2            =   6.8753374271951E-07
(PID.TID 0000.0001) %MON dynstat_vvel_max             =   1.2007463883688E-02
(PID.TID 0000.0001) %MON dynstat_vvel_min             =  -5.4656393539130E-03
(PID.TID 0000.0001) %MON dynstat_vvel_mean            =   1.5277597421349E-05
(PID.TID 0000.0001) %MON dynstat_vvel_sd              =   2.9276861082478E-04
(PID.TID 0000.0001) %MON dynstat_vvel_del2            =   5.9495010437942E-07
(PID.TID 0000.0001) %MON dynstat_wvel_max             =   5.6546952241650E-04
(PID.TID 0000.0001) %MON dynstat_wvel_min             =  -5.6128090524963E-04
(PID.TID 0000.0001) %MON dynstat_wvel_mean            =   7.1709662274387E-09
(PID.TID 0000.0001) %MON dynstat_wvel_sd              =   1.6101757852913E-05
(PID.TID 0000.0001) %MON dynstat_wvel_del2            =   6.0129186985102E-08
(PID.TID 0000.0001) %MON dynstat_theta_max            =   1.2000000000000E+00
(PID.TID 0000.0001) %MON dynstat_theta_min            =  -1.0000000000000E+00
(PID.TID 0000.0001) %MON dynstat_theta_mean           =   5.6885987902654E-01
(PID.TID 0000.0001) %MON dynstat_theta_sd             =   8.6845262209462E-01
(PID.TID 0000.0001) %MON dynstat_theta_del2           =   1.8769964300060E-06
(PID.TID 0000.0001) %MON dynstat_salt_max             =   3.4700000000000E+01
(PID.TID 0000.0001) %MON dynstat_salt_min             =   3.4000000000000E+01
(PID.TID 0000.0001) %MON dynstat_salt_mean            =   3.4499158127670E+01
(PID.TID 0000.0001) %MON dynstat_salt_sd              =   2.7631736472901E-01
(PID.TID 0000.0001) %MON dynstat_salt_del2            =   7.3617385527657E-07
(PID.TID 0000.0001) %MON advcfl_uvel_max              =   1.4883994043394E-03
(PID.TID 0000.0001) %MON advcfl_vvel_max              =   1.2007463883688E-03
(PID.TID 0000.0001) %MON advcfl_wvel_max              =   2.8273476120825E-03
(PID.TID 0000.0001) %MON advcfl_W_hf_max              =   2.8273476120825E-03
(PID.TID 0000.0001) %MON pe_b_mean                    =  -8.3064587540751E-01
(PID.TID 0000.0001) %MON ke_max                       =   6.7694604071389E-05
(PID.TID 0000.0001) %MON ke_mean                      =   1.3818964267840E-07
(PID.TID 0000.0001) %MON ke_vol                       =   4.2724911485767E+12
(PID.TID 0000.0001) // =======================================================
(PID.TID 0000.0001) // End MONITOR dynamic field statistics
(PID.TID 0000.0001) // =======================================================
(PID.TID 0000.0001) // =======================================================
(PID.TID 0000.0001) // Begin OBCS MONITOR field statistics
(PID.TID 0000.0001) // =======================================================
(PID.TID 0000.0001) %MON obc_N_vVel_max               =   1.4997082941890E-05
(PID.TID 0000.0001) %MON obc_N_vVel_min               =   1.4997082941889E-05
(PID.TID 0000.0001) %MON obc_N_vVel_mean              =   1.4997082941889E-05
(PID.TID 0000.0001) %MON obc_N_vVel_sd                =   4.1210498603486E-12
(PID.TID 0000.0001) %MON obc_N_vVel_Int               =   9.8980747416469E+02
(PID.TID 0000.0001) // =======================================================
(PID.TID 0000.0001) // End OBCS MONITOR field statistics
(PID.TID 0000.0001) // =======================================================
 cg2d: Sum(rhs),rhsMax =   4.51299717839901E+00  2.99921443324731E+02
(PID.TID 0000.0001)      cg2d_init_res =   6.37208714891147E-06
(PID.TID 0000.0001)      cg2d_iters(min,last) =      -1      80
(PID.TID 0000.0001)      cg2d_last_res =   9.59744995365246E-12
(PID.TID 0000.0001) // =======================================================
(PID.TID 0000.0001) // Begin MONITOR dynamic field statistics
(PID.TID 0000.0001) // =======================================================
(PID.TID 0000.0001) %MON time_tsnumber                =                   882
(PID.TID 0000.0001) %MON time_secondsf                =   8.8200000000000E+04
(PID.TID 0000.0001) %MON dynstat_eta_max              =   5.7962613242915E+00
(PID.TID 0000.0001) %MON dynstat_eta_min              =  -1.4196600810092E+01
(PID.TID 0000.0001) %MON dynstat_eta_mean             =  -2.5065641249368E+00
(PID.TID 0000.0001) %MON dynstat_eta_sd               =   4.9507965512316E+00
(PID.TID 0000.0001) %MON dynstat_eta_del2             =   2.0714644844481E-01
(PID.TID 0000.0001) %MON dynstat_uvel_max             =   3.3398681229144E-03
(PID.TID 0000.0001) %MON dynstat_uvel_min             =  -1.4924074387295E-02
(PID.TID 0000.0001) %MON dynstat_uvel_mean            =  -1.1736450887756E-07
(PID.TID 0000.0001) %MON dynstat_uvel_sd              =   4.4194984574369E-04
(PID.TID 0000.0001) %MON dynstat_uvel_del2            =   6.8898901985532E-07
(PID.TID 0000.0001) %MON dynstat_vvel_max             =   1.2038330828176E-02
(PID.TID 0000.0001) %MON dynstat_vvel_min             =  -5.4762312098431E-03
(PID.TID 0000.0001) %MON dynstat_vvel_mean            =   1.5293104896835E-05
(PID.TID 0000.0001) %MON dynstat_vvel_sd              =   2.9342245622036E-04
(PID.TID 0000.0001) %MON dynstat_vvel_del2            =   5.9596190027644E-07
(PID.TID 0000.0001) %MON dynstat_wvel_max             =   5.6717207624048E-04
(PID.TID 0000.0001) %MON dynstat_wvel_min             =  -5.6286231300646E-04
(PID.TID 0000.0001) %MON dynstat_wvel_mean            =   7.1866846090921E-09
(PID.TID 0000.0001) %MON dynstat_wvel_sd              =   1.6111274406259E-05
(PID.TID 0000.0001) %MON dynstat_wvel_del2            =   5.9853549538343E-08
(PID.TID 0000.0001) %MON dynstat_theta_max            =   1.2000000000000E+00
(PID.TID 0000.0001) %MON dynstat_theta_min            =  -1.0000000000000E+00
(PID.TID 0000.0001) %MON dynstat_theta_mean           =   5.6885929066285E-01
(PID.TID 0000.0001) %MON dynstat_theta_sd             =   8.6845230028548E-01
(PID.TID 0000.0001) %MON dynstat_theta_del2           =   1.8807476384095E-06
(PID.TID 0000.0001) %MON dynstat_salt_max             =   3.4700000000000E+01
(PID.TID 0000.0001) %MON dynstat_salt_min             =   3.4000000000000E+01
(PID.TID 0000.0001) %MON dynstat_salt_mean            =   3.4499157892368E+01
(PID.TID 0000.0001) %MON dynstat_salt_sd              =   2.7631724167257E-01
(PID.TID 0000.0001) %MON dynstat_salt_del2            =   7.3766775492704E-07
(PID.TID 0000.0001) %MON advcfl_uvel_max              =   1.4924074387295E-03
(PID.TID 0000.0001) %MON advcfl_vvel_max              =   1.2038330828176E-03
(PID.TID 0000.0001) %MON advcfl_wvel_max              =   2.8358603812024E-03
(PID.TID 0000.0001) %MON advcfl_W_hf_max              =   2.8358603812024E-03
(PID.TID 0000.0001) %MON pe_b_mean                    =  -8.3064908751117E-01
(PID.TID 0000.0001) %MON ke_max                       =   6.8128273275174E-05
(PID.TID 0000.0001) %MON ke_mean                      =   1.3888569027400E-07
(PID.TID 0000.0001) %MON ke_vol                       =   4.2724910788525E+12
(PID.TID 0000.0001) // =======================================================
(PID.TID 0000.0001) // End MONITOR dynamic field statistics
(PID.TID 0000.0001) // =======================================================
(PID.TID 0000.0001) // =======================================================
(PID.TID 0000.0001) // Begin OBCS MONITOR field statistics
(PID.TID 0000.0001) // =======================================================
(PID.TID 0000.0001) %MON obc_N_vVel_max               =   1.5011227558464E-05
(PID.TID 0000.0001) %MON obc_N_vVel_min               =   1.5011227558464E-05
(PID.TID 0000.0001) %MON obc_N_vVel_mean              =   1.5011227558464E-05
(PID.TID 0000.0001) %MON obc_N_vVel_sd                =  -1.0339757656913E-24
(PID.TID 0000.0001) %MON obc_N_vVel_Int               =   9.9074101885861E+02
(PID.TID 0000.0001) // =======================================================
(PID.TID 0000.0001) // End OBCS MONITOR field statistics
(PID.TID 0000.0001) // =======================================================
 cg2d: Sum(rhs),rhsMax =   4.51301707675295E+00  2.99921526618337E+02
(PID.TID 0000.0001)      cg2d_init_res =   6.38391971507997E-06
(PID.TID 0000.0001)      cg2d_iters(min,last) =      -1      80
(PID.TID 0000.0001)      cg2d_last_res =   9.60502818597216E-12
(PID.TID 0000.0001) // =======================================================
(PID.TID 0000.0001) // Begin MONITOR dynamic field statistics
(PID.TID 0000.0001) // =======================================================
(PID.TID 0000.0001) %MON time_tsnumber                =                   883
(PID.TID 0000.0001) %MON time_secondsf                =   8.8300000000000E+04
(PID.TID 0000.0001) %MON dynstat_eta_max              =   5.7962545488574E+00
(PID.TID 0000.0001) %MON dynstat_eta_min              =  -1.4196624045614E+01
(PID.TID 0000.0001) %MON dynstat_eta_mean             =  -2.5065758728044E+00
(PID.TID 0000.0001) %MON dynstat_eta_sd               =   4.9508006164636E+00
(PID.TID 0000.0001) %MON dynstat_eta_del2             =   2.0714646922150E-01
(PID.TID 0000.0001) %MON dynstat_uvel_max             =   3.3489634071167E-03
(PID.TID 0000.0001) %MON dynstat_uvel_min             =  -1.4964228394525E-02
(PID.TID 0000.0001) %MON dynstat_uvel_mean            =  -1.1732633323754E-07
(PID.TID 0000.0001) %MON dynstat_uvel_sd              =   4.4311858258982E-04
(PID.TID 0000.0001) %MON dynstat_uvel_del2            =   6.9044854800908E-07
(PID.TID 0000.0001) %MON dynstat_vvel_max             =   1.2069251860393E-02
(PID.TID 0000.0001) %MON dynstat_vvel_min             =  -5.4868348861747E-03
(PID.TID 0000.0001) %MON dynstat_vvel_mean            =   1.5308247362702E-05
(PID.TID 0000.0001) %MON dynstat_vvel_sd              =   2.9407380911445E-04
(PID.TID 0000.0001) %MON dynstat_vvel_del2            =   5.9703063733840E-07
(PID.TID 0000.0001) %MON dynstat_wvel_max             =   5.6887850241039E-04
(PID.TID 0000.0001) %MON dynstat_wvel_min             =  -5.6444756981556E-04
(PID.TID 0000.0001) %MON dynstat_wvel_mean            =   7.2022193273115E-09
(PID.TID 0000.0001) %MON dynstat_wvel_sd              =   1.6135239210862E-05
(PID.TID 0000.0001) %MON dynstat_wvel_del2            =   5.9763698954506E-08
(PID.TID 0000.0001) %MON dynstat_theta_max            =   1.2000000000000E+00
(PID.TID 0000.0001) %MON dynstat_theta_min            =  -1.0000000000000E+00
(PID.TID 0000.0001) %MON dynstat_theta_mean           =   5.6885870100150E-01
(PID.TID 0000.0001) %MON dynstat_theta_sd             =   8.6845197783824E-01
(PID.TID 0000.0001) %MON dynstat_theta_del2           =   1.8844417357441E-06
(PID.TID 0000.0001) %MON dynstat_salt_max             =   3.4700000000000E+01
(PID.TID 0000.0001) %MON dynstat_salt_min             =   3.4000000000000E+01
(PID.TID 0000.0001) %MON dynstat_salt_mean            =   3.4499157656549E+01
(PID.TID 0000.0001) %MON dynstat_salt_sd              =   2.7631711836474E-01
(PID.TID 0000.0001) %MON dynstat_salt_del2            =   7.3914780881859E-07
(PID.TID 0000.0001) %MON advcfl_uvel_max              =   1.4964228394525E-03
(PID.TID 0000.0001) %MON advcfl_vvel_max              =   1.2069251860393E-03
(PID.TID 0000.0001) %MON advcfl_wvel_max              =   2.8443925120520E-03
(PID.TID 0000.0001) %MON advcfl_W_hf_max              =   2.8443925120520E-03
(PID.TID 0000.0001) %MON pe_b_mean                    =  -8.3065229984105E-01
(PID.TID 0000.0001) %MON ke_max                       =   6.8564476233910E-05
(PID.TID 0000.0001) %MON ke_mean                      =   1.3958419662439E-07
(PID.TID 0000.0001) %MON ke_vol                       =   4.2724910090979E+12
(PID.TID 0000.0001) // =======================================================
(PID.TID 0000.0001) // End MONITOR dynamic field statistics
(PID.TID 0000.0001) // =======================================================
(PID.TID 0000.0001) // =======================================================
(PID.TID 0000.0001) // Begin OBCS MONITOR field statistics
(PID.TID 0000.0001) // =======================================================
(PID.TID 0000.0001) %MON obc_N_vVel_max               =   1.5025001800705E-05
(PID.TID 0000.0001) %MON obc_N_vVel_min               =   1.5025001800705E-05
(PID.TID 0000.0001) %MON obc_N_vVel_mean              =   1.5025001800705E-05
(PID.TID 0000.0001) %MON obc_N_vVel_sd                =  -2.2669918662781E-23
(PID.TID 0000.0001) %MON obc_N_vVel_Int               =   9.9165011884653E+02
(PID.TID 0000.0001) // =======================================================
(PID.TID 0000.0001) // End OBCS MONITOR field statistics
(PID.TID 0000.0001) // =======================================================
 cg2d: Sum(rhs),rhsMax =   4.51303697955178E+00  2.99921610130473E+02
(PID.TID 0000.0001)      cg2d_init_res =   6.39702031762299E-06
(PID.TID 0000.0001)      cg2d_iters(min,last) =      -1      80
(PID.TID 0000.0001)      cg2d_last_res =   9.61597082046421E-12
(PID.TID 0000.0001) // =======================================================
(PID.TID 0000.0001) // Begin MONITOR dynamic field statistics
(PID.TID 0000.0001) // =======================================================
(PID.TID 0000.0001) %MON time_tsnumber                =                   884
(PID.TID 0000.0001) %MON time_secondsf                =   8.8400000000000E+04
(PID.TID 0000.0001) %MON dynstat_eta_max              =   5.7962477781570E+00
(PID.TID 0000.0001) %MON dynstat_eta_min              =  -1.4196647294573E+01
(PID.TID 0000.0001) %MON dynstat_eta_mean             =  -2.5065876249732E+00
(PID.TID 0000.0001) %MON dynstat_eta_sd               =   4.9508046834997E+00
(PID.TID 0000.0001) %MON dynstat_eta_del2             =   2.0714649005134E-01
(PID.TID 0000.0001) %MON dynstat_uvel_max             =   3.3580788558289E-03
(PID.TID 0000.0001) %MON dynstat_uvel_min             =  -1.5004456046341E-02
(PID.TID 0000.0001) %MON dynstat_uvel_mean            =  -1.1730226930405E-07
(PID.TID 0000.0001) %MON dynstat_uvel_sd              =   4.4429061888017E-04
(PID.TID 0000.0001) %MON dynstat_uvel_del2            =   6.9191234933846E-07
(PID.TID 0000.0001) %MON dynstat_vvel_max             =   1.2100226888673E-02
(PID.TID 0000.0001) %MON dynstat_vvel_min             =  -5.4974504796803E-03
(PID.TID 0000.0001) %MON dynstat_vvel_mean            =   1.5323011916290E-05
(PID.TID 0000.0001) %MON dynstat_vvel_sd              =   2.9472225469471E-04
(PID.TID 0000.0001) %MON dynstat_vvel_del2            =   5.9815791882912E-07
(PID.TID 0000.0001) %MON dynstat_wvel_max             =   5.7058880765230E-04
(PID.TID 0000.0001) %MON dynstat_wvel_min             =  -5.6603667115747E-04
(PID.TID 0000.0001) %MON dynstat_wvel_mean            =   7.2168960554000E-09
(PID.TID 0000.0001) %MON dynstat_wvel_sd              =   1.6173686392939E-05
(PID.TID 0000.0001) %MON dynstat_wvel_del2            =   5.9868559252446E-08
(PID.TID 0000.0001) %MON dynstat_theta_max            =   1.2000000000000E+00
(PID.TID 0000.0001) %MON dynstat_theta_min            =  -1.0000000000000E+00
(PID.TID 0000.0001) %MON dynstat_theta_mean           =   5.6885811004794E-01
(PID.TID 0000.0001) %MON dynstat_theta_sd             =   8.6845165474728E-01
(PID.TID 0000.0001) %MON dynstat_theta_del2           =   1.8880792845281E-06
(PID.TID 0000.0001) %MON dynstat_salt_max             =   3.4700000000000E+01
(PID.TID 0000.0001) %MON dynstat_salt_min             =   3.4000000000000E+01
(PID.TID 0000.0001) %MON dynstat_salt_mean            =   3.4499157420213E+01
(PID.TID 0000.0001) %MON dynstat_salt_sd              =   2.7631699480345E-01
(PID.TID 0000.0001) %MON dynstat_salt_del2            =   7.4061429772258E-07
(PID.TID 0000.0001) %MON advcfl_uvel_max              =   1.5004456046341E-03
(PID.TID 0000.0001) %MON advcfl_vvel_max              =   1.2100226888673E-03
(PID.TID 0000.0001) %MON advcfl_wvel_max              =   2.8529440382615E-03
(PID.TID 0000.0001) %MON advcfl_W_hf_max              =   2.8529440382615E-03
(PID.TID 0000.0001) %MON pe_b_mean                    =  -8.3065551228598E-01
(PID.TID 0000.0001) %MON ke_max                       =   6.9003225621157E-05
(PID.TID 0000.0001) %MON ke_mean                      =   1.4028504064380E-07
(PID.TID 0000.0001) %MON ke_vol                       =   4.2724909393155E+12
(PID.TID 0000.0001) // =======================================================
(PID.TID 0000.0001) // End MONITOR dynamic field statistics
(PID.TID 0000.0001) // =======================================================
(PID.TID 0000.0001) // =======================================================
(PID.TID 0000.0001) // Begin OBCS MONITOR field statistics
(PID.TID 0000.0001) // =======================================================
(PID.TID 0000.0001) %MON obc_N_vVel_max               =   1.5038463044654E-05
(PID.TID 0000.0001) %MON obc_N_vVel_min               =   1.5038463044653E-05
(PID.TID 0000.0001) %MON obc_N_vVel_mean              =   1.5038463044653E-05
(PID.TID 0000.0001) %MON obc_N_vVel_sd                =   2.8353415276206E-12
(PID.TID 0000.0001) %MON obc_N_vVel_Int               =   9.9253856094711E+02
(PID.TID 0000.0001) // =======================================================
(PID.TID 0000.0001) // End OBCS MONITOR field statistics
(PID.TID 0000.0001) // =======================================================
 cg2d: Sum(rhs),rhsMax =   4.51305688648610E+00  2.99921693841388E+02
(PID.TID 0000.0001)      cg2d_init_res =   6.41136394327817E-06
(PID.TID 0000.0001)      cg2d_iters(min,last) =      -1      80
(PID.TID 0000.0001)      cg2d_last_res =   9.63038353449778E-12
(PID.TID 0000.0001) // =======================================================
(PID.TID 0000.0001) // Begin MONITOR dynamic field statistics
(PID.TID 0000.0001) // =======================================================
(PID.TID 0000.0001) %MON time_tsnumber                =                   885
(PID.TID 0000.0001) %MON time_secondsf                =   8.8500000000000E+04
(PID.TID 0000.0001) %MON dynstat_eta_max              =   5.7962410295116E+00
(PID.TID 0000.0001) %MON dynstat_eta_min              =  -1.4196670555678E+01
(PID.TID 0000.0001) %MON dynstat_eta_mean             =  -2.5065993811064E+00
(PID.TID 0000.0001) %MON dynstat_eta_sd               =   4.9508087522153E+00
(PID.TID 0000.0001) %MON dynstat_eta_del2             =   2.0714651093448E-01
(PID.TID 0000.0001) %MON dynstat_uvel_max             =   3.3672144967767E-03
(PID.TID 0000.0001) %MON dynstat_uvel_min             =  -1.5044757321455E-02
(PID.TID 0000.0001) %MON dynstat_uvel_mean            =  -1.1728606268420E-07
(PID.TID 0000.0001) %MON dynstat_uvel_sd              =   4.4546594080205E-04
(PID.TID 0000.0001) %MON dynstat_uvel_del2            =   6.9338045071799E-07
(PID.TID 0000.0001) %MON dynstat_vvel_max             =   1.2131255844207E-02
(PID.TID 0000.0001) %MON dynstat_vvel_min             =  -5.5080780691235E-03
(PID.TID 0000.0001) %MON dynstat_vvel_mean            =   1.5337366627390E-05
(PID.TID 0000.0001) %MON dynstat_vvel_sd              =   2.9536715908607E-04
(PID.TID 0000.0001) %MON dynstat_vvel_del2            =   5.9934008696361E-07
(PID.TID 0000.0001) %MON dynstat_wvel_max             =   5.7230299816122E-04
(PID.TID 0000.0001) %MON dynstat_wvel_min             =  -5.6762961432328E-04
(PID.TID 0000.0001) %MON dynstat_wvel_mean            =   7.2301595287254E-09
(PID.TID 0000.0001) %MON dynstat_wvel_sd              =   1.6224957493810E-05
(PID.TID 0000.0001) %MON dynstat_wvel_del2            =   6.0156012829754E-08
(PID.TID 0000.0001) %MON dynstat_theta_max            =   1.2000000000000E+00
(PID.TID 0000.0001) %MON dynstat_theta_min            =  -1.0000000000000E+00
(PID.TID 0000.0001) %MON dynstat_theta_mean           =   5.6885751780832E-01
(PID.TID 0000.0001) %MON dynstat_theta_sd             =   8.6845133100306E-01
(PID.TID 0000.0001) %MON dynstat_theta_del2           =   1.8916647318083E-06
(PID.TID 0000.0001) %MON dynstat_salt_max             =   3.4700000000000E+01
(PID.TID 0000.0001) %MON dynstat_salt_min             =   3.4000000000000E+01
(PID.TID 0000.0001) %MON dynstat_salt_mean            =   3.4499157183363E+01
(PID.TID 0000.0001) %MON dynstat_salt_sd              =   2.7631687098550E-01
(PID.TID 0000.0001) %MON dynstat_salt_del2            =   7.4206832583251E-07
(PID.TID 0000.0001) %MON advcfl_uvel_max              =   1.5044757321455E-03
(PID.TID 0000.0001) %MON advcfl_vvel_max              =   1.2131255844207E-03
(PID.TID 0000.0001) %MON advcfl_wvel_max              =   2.8615149908061E-03
(PID.TID 0000.0001) %MON advcfl_W_hf_max              =   2.8615149908061E-03
(PID.TID 0000.0001) %MON pe_b_mean                    =  -8.3065872472568E-01
(PID.TID 0000.0001) %MON ke_max                       =   6.9444534098331E-05
(PID.TID 0000.0001) %MON ke_mean                      =   1.4098803429755E-07
(PID.TID 0000.0001) %MON ke_vol                       =   4.2724908695077E+12
(PID.TID 0000.0001) // =======================================================
(PID.TID 0000.0001) // End MONITOR dynamic field statistics
(PID.TID 0000.0001) // =======================================================
(PID.TID 0000.0001) // =======================================================
(PID.TID 0000.0001) // Begin OBCS MONITOR field statistics
(PID.TID 0000.0001) // =======================================================
(PID.TID 0000.0001) %MON obc_N_vVel_max               =   1.5051638749427E-05
(PID.TID 0000.0001) %MON obc_N_vVel_min               =   1.5051638749427E-05
(PID.TID 0000.0001) %MON obc_N_vVel_mean              =   1.5051638749427E-05
(PID.TID 0000.0001) %MON obc_N_vVel_sd                =   3.2831687981783E-12
(PID.TID 0000.0001) %MON obc_N_vVel_Int               =   9.9340815746218E+02
(PID.TID 0000.0001) // =======================================================
(PID.TID 0000.0001) // End OBCS MONITOR field statistics
(PID.TID 0000.0001) // =======================================================
 cg2d: Sum(rhs),rhsMax =   4.51307679725470E+00  2.99921777729342E+02
(PID.TID 0000.0001)      cg2d_init_res =   6.42664240140138E-06
(PID.TID 0000.0001)      cg2d_iters(min,last) =      -1      80
(PID.TID 0000.0001)      cg2d_last_res =   9.64658215696503E-12
(PID.TID 0000.0001) // =======================================================
(PID.TID 0000.0001) // Begin MONITOR dynamic field statistics
(PID.TID 0000.0001) // =======================================================
(PID.TID 0000.0001) %MON time_tsnumber                =                   886
(PID.TID 0000.0001) %MON time_secondsf                =   8.8600000000000E+04
(PID.TID 0000.0001) %MON dynstat_eta_max              =   5.7962342890108E+00
(PID.TID 0000.0001) %MON dynstat_eta_min              =  -1.4196693827384E+01
(PID.TID 0000.0001) %MON dynstat_eta_mean             =  -2.5066111408550E+00
(PID.TID 0000.0001) %MON dynstat_eta_sd               =   4.9508128224417E+00
(PID.TID 0000.0001) %MON dynstat_eta_del2             =   2.0714653187056E-01
(PID.TID 0000.0001) %MON dynstat_uvel_max             =   3.3763703538554E-03
(PID.TID 0000.0001) %MON dynstat_uvel_min             =  -1.5085132188222E-02
(PID.TID 0000.0001) %MON dynstat_uvel_mean            =  -1.1726967751076E-07
(PID.TID 0000.0001) %MON dynstat_uvel_sd              =   4.4664453155122E-04
(PID.TID 0000.0001) %MON dynstat_uvel_del2            =   6.9485287272526E-07
(PID.TID 0000.0001) %MON dynstat_vvel_max             =   1.2162338691595E-02
(PID.TID 0000.0001) %MON dynstat_vvel_min             =  -5.5187177061269E-03
(PID.TID 0000.0001) %MON dynstat_vvel_mean            =   1.5351263064755E-05
(PID.TID 0000.0001) %MON dynstat_vvel_sd              =   2.9600770001439E-04
(PID.TID 0000.0001) %MON dynstat_vvel_del2            =   6.0056868528076E-07
(PID.TID 0000.0001) %MON dynstat_wvel_max             =   5.7402107930584E-04
(PID.TID 0000.0001) %MON dynstat_wvel_min             =  -5.6922639957218E-04
(PID.TID 0000.0001) %MON dynstat_wvel_mean            =   7.2416318973715E-09
(PID.TID 0000.0001) %MON dynstat_wvel_sd              =   1.6285871362771E-05
(PID.TID 0000.0001) %MON dynstat_wvel_del2            =   6.0594870161253E-08
(PID.TID 0000.0001) %MON dynstat_theta_max            =   1.2000000000000E+00
(PID.TID 0000.0001) %MON dynstat_theta_min            =  -1.0000000000000E+00
(PID.TID 0000.0001) %MON dynstat_theta_mean           =   5.6885692428886E-01
(PID.TID 0000.0001) %MON dynstat_theta_sd             =   8.6845100659566E-01
(PID.TID 0000.0001) %MON dynstat_theta_del2           =   1.8952097290044E-06
(PID.TID 0000.0001) %MON dynstat_salt_max             =   3.4700000000000E+01
(PID.TID 0000.0001) %MON dynstat_salt_min             =   3.4000000000000E+01
(PID.TID 0000.0001) %MON dynstat_salt_mean            =   3.4499156946001E+01
(PID.TID 0000.0001) %MON dynstat_salt_sd              =   2.7631674690786E-01
(PID.TID 0000.0001) %MON dynstat_salt_del2            =   7.4351271968970E-07
(PID.TID 0000.0001) %MON advcfl_uvel_max              =   1.5085132188222E-03
(PID.TID 0000.0001) %MON advcfl_vvel_max              =   1.2162338691595E-03
(PID.TID 0000.0001) %MON advcfl_wvel_max              =   2.8701053965292E-03
(PID.TID 0000.0001) %MON advcfl_W_hf_max              =   2.8701053965292E-03
(PID.TID 0000.0001) %MON pe_b_mean                    =  -8.3066193702595E-01
(PID.TID 0000.0001) %MON ke_max                       =   6.9888414196961E-05
(PID.TID 0000.0001) %MON ke_mean                      =   1.4169293059446E-07
(PID.TID 0000.0001) %MON ke_vol                       =   4.2724907996762E+12
(PID.TID 0000.0001) // =======================================================
(PID.TID 0000.0001) // End MONITOR dynamic field statistics
(PID.TID 0000.0001) // =======================================================
(PID.TID 0000.0001) // =======================================================
(PID.TID 0000.0001) // Begin OBCS MONITOR field statistics
(PID.TID 0000.0001) // =======================================================
(PID.TID 0000.0001) %MON obc_N_vVel_max               =   1.5064519565139E-05
(PID.TID 0000.0001) %MON obc_N_vVel_min               =   1.5064519565139E-05
(PID.TID 0000.0001) %MON obc_N_vVel_mean              =   1.5064519565139E-05
(PID.TID 0000.0001) %MON obc_N_vVel_sd                =   4.4410683096031E-12
(PID.TID 0000.0001) %MON obc_N_vVel_Int               =   9.9425829129914E+02
(PID.TID 0000.0001) // =======================================================
(PID.TID 0000.0001) // End OBCS MONITOR field statistics
(PID.TID 0000.0001) // =======================================================
 cg2d: Sum(rhs),rhsMax =   4.51309671149518E+00  2.99921861770704E+02
(PID.TID 0000.0001)      cg2d_init_res =   6.44254483092917E-06
(PID.TID 0000.0001)      cg2d_iters(min,last) =      -1      80
(PID.TID 0000.0001)      cg2d_last_res =   9.66358054919427E-12
(PID.TID 0000.0001) // =======================================================
(PID.TID 0000.0001) // Begin MONITOR dynamic field statistics
(PID.TID 0000.0001) // =======================================================
(PID.TID 0000.0001) %MON time_tsnumber                =                   887
(PID.TID 0000.0001) %MON time_secondsf                =   8.8700000000000E+04
(PID.TID 0000.0001) %MON dynstat_eta_max              =   5.7962275588774E+00
(PID.TID 0000.0001) %MON dynstat_eta_min              =  -1.4196717108081E+01
(PID.TID 0000.0001) %MON dynstat_eta_mean             =  -2.5066229038201E+00
(PID.TID 0000.0001) %MON dynstat_eta_sd               =   4.9508168939660E+00
(PID.TID 0000.0001) %MON dynstat_eta_del2             =   2.0714655285916E-01
(PID.TID 0000.0001) %MON dynstat_uvel_max             =   3.3855464486692E-03
(PID.TID 0000.0001) %MON dynstat_uvel_min             =  -1.5125580599772E-02
(PID.TID 0000.0001) %MON dynstat_uvel_mean            =  -1.1724541399345E-07
(PID.TID 0000.0001) %MON dynstat_uvel_sd              =   4.4782637179858E-04
(PID.TID 0000.0001) %MON dynstat_uvel_del2            =   6.9632963417219E-07
(PID.TID 0000.0001) %MON dynstat_vvel_max             =   1.2193475430155E-02
(PID.TID 0000.0001) %MON dynstat_vvel_min             =  -5.5293694140399E-03
(PID.TID 0000.0001) %MON dynstat_vvel_mean            =   1.5364640877316E-05
(PID.TID 0000.0001) %MON dynstat_vvel_sd              =   2.9664292071673E-04
(PID.TID 0000.0001) %MON dynstat_vvel_del2            =   6.0183143968698E-07
(PID.TID 0000.0001) %MON dynstat_wvel_max             =   5.7574305559451E-04
(PID.TID 0000.0001) %MON dynstat_wvel_min             =  -5.7082703011990E-04
(PID.TID 0000.0001) %MON dynstat_wvel_mean            =   7.2511356127816E-09
(PID.TID 0000.0001) %MON dynstat_wvel_sd              =   1.6352050177550E-05
(PID.TID 0000.0001) %MON dynstat_wvel_del2            =   6.1139235561370E-08
(PID.TID 0000.0001) %MON dynstat_theta_max            =   1.2000000000000E+00
(PID.TID 0000.0001) %MON dynstat_theta_min            =  -1.0000000000000E+00
(PID.TID 0000.0001) %MON dynstat_theta_mean           =   5.6885632949586E-01
(PID.TID 0000.0001) %MON dynstat_theta_sd             =   8.6845068151212E-01
(PID.TID 0000.0001) %MON dynstat_theta_del2           =   1.8987284062855E-06
(PID.TID 0000.0001) %MON dynstat_salt_max             =   3.4700000000000E+01
(PID.TID 0000.0001) %MON dynstat_salt_min             =   3.4000000000000E+01
(PID.TID 0000.0001) %MON dynstat_salt_mean            =   3.4499156708127E+01
(PID.TID 0000.0001) %MON dynstat_salt_sd              =   2.7631662256600E-01
(PID.TID 0000.0001) %MON dynstat_salt_del2            =   7.4495115894388E-07
(PID.TID 0000.0001) %MON advcfl_uvel_max              =   1.5125580599772E-03
(PID.TID 0000.0001) %MON advcfl_vvel_max              =   1.2193475430155E-03
(PID.TID 0000.0001) %MON advcfl_wvel_max              =   2.8787152779725E-03
(PID.TID 0000.0001) %MON advcfl_W_hf_max              =   2.8787152779725E-03
(PID.TID 0000.0001) %MON pe_b_mean                    =  -8.3066514903625E-01
(PID.TID 0000.0001) %MON ke_max                       =   7.0334878243483E-05
(PID.TID 0000.0001) %MON ke_mean                      =   1.4239943926031E-07
(PID.TID 0000.0001) %MON ke_vol                       =   4.2724907298233E+12
(PID.TID 0000.0001) // =======================================================
(PID.TID 0000.0001) // End MONITOR dynamic field statistics
(PID.TID 0000.0001) // =======================================================
(PID.TID 0000.0001) // =======================================================
(PID.TID 0000.0001) // Begin OBCS MONITOR field statistics
(PID.TID 0000.0001) // =======================================================
(PID.TID 0000.0001) %MON obc_N_vVel_max               =   1.5077060219722E-05
(PID.TID 0000.0001) %MON obc_N_vVel_min               =   1.5077060219721E-05
(PID.TID 0000.0001) %MON obc_N_vVel_mean              =   1.5077060219721E-05
(PID.TID 0000.0001) %MON obc_N_vVel_sd                =   3.9643954947139E-12
(PID.TID 0000.0001) %MON obc_N_vVel_Int               =   9.9508597450161E+02
(PID.TID 0000.0001) // =======================================================
(PID.TID 0000.0001) // End OBCS MONITOR field statistics
(PID.TID 0000.0001) // =======================================================
 cg2d: Sum(rhs),rhsMax =   4.51311662872776E+00  2.99921945940022E+02
(PID.TID 0000.0001)      cg2d_init_res =   6.45863311892793E-06
(PID.TID 0000.0001)      cg2d_iters(min,last) =      -1      80
(PID.TID 0000.0001)      cg2d_last_res =   9.68019054958769E-12
(PID.TID 0000.0001) // =======================================================
(PID.TID 0000.0001) // Begin MONITOR dynamic field statistics
(PID.TID 0000.0001) // =======================================================
(PID.TID 0000.0001) %MON time_tsnumber                =                   888
(PID.TID 0000.0001) %MON time_secondsf                =   8.8800000000000E+04
(PID.TID 0000.0001) %MON dynstat_eta_max              =   5.7962208410335E+00
(PID.TID 0000.0001) %MON dynstat_eta_min              =  -1.4196740396262E+01
(PID.TID 0000.0001) %MON dynstat_eta_mean             =  -2.5066346695228E+00
(PID.TID 0000.0001) %MON dynstat_eta_sd               =   4.9508209665377E+00
(PID.TID 0000.0001) %MON dynstat_eta_del2             =   2.0714657390009E-01
(PID.TID 0000.0001) %MON dynstat_uvel_max             =   3.3947428012659E-03
(PID.TID 0000.0001) %MON dynstat_uvel_min             =  -1.5166102498121E-02
(PID.TID 0000.0001) %MON dynstat_uvel_mean            =  -1.1720762631336E-07
(PID.TID 0000.0001) %MON dynstat_uvel_sd              =   4.4901143962354E-04
(PID.TID 0000.0001) %MON dynstat_uvel_del2            =   6.9781075066481E-07
(PID.TID 0000.0001) %MON dynstat_vvel_max             =   1.2224666087256E-02
(PID.TID 0000.0001) %MON dynstat_vvel_min             =  -5.5400331935251E-03
(PID.TID 0000.0001) %MON dynstat_vvel_mean            =   1.5377432661309E-05
(PID.TID 0000.0001) %MON dynstat_vvel_sd              =   2.9727180152705E-04
(PID.TID 0000.0001) %MON dynstat_vvel_del2            =   6.0311357264358E-07
(PID.TID 0000.0001) %MON dynstat_wvel_max             =   5.7746893090386E-04
(PID.TID 0000.0001) %MON dynstat_wvel_min             =  -5.7243151173132E-04
(PID.TID 0000.0001) %MON dynstat_wvel_mean            =   7.2586808977831E-09
(PID.TID 0000.0001) %MON dynstat_wvel_sd              =   1.6418355217818E-05
(PID.TID 0000.0001) %MON dynstat_wvel_del2            =   6.1734351218988E-08
(PID.TID 0000.0001) %MON dynstat_theta_max            =   1.2000000000000E+00
(PID.TID 0000.0001) %MON dynstat_theta_min            =  -1.0000000000000E+00
(PID.TID 0000.0001) %MON dynstat_theta_mean           =   5.6885573343565E-01
(PID.TID 0000.0001) %MON dynstat_theta_sd             =   8.6845035574273E-01
(PID.TID 0000.0001) %MON dynstat_theta_del2           =   1.9022372141185E-06
(PID.TID 0000.0001) %MON dynstat_salt_max             =   3.4700000000000E+01
(PID.TID 0000.0001) %MON dynstat_salt_min             =   3.4000000000000E+01
(PID.TID 0000.0001) %MON dynstat_salt_mean            =   3.4499156469745E+01
(PID.TID 0000.0001) %MON dynstat_salt_sd              =   2.7631649795713E-01
(PID.TID 0000.0001) %MON dynstat_salt_del2            =   7.4638790435218E-07
(PID.TID 0000.0001) %MON advcfl_uvel_max              =   1.5166102498121E-03
(PID.TID 0000.0001) %MON advcfl_vvel_max              =   1.2224666087256E-03
(PID.TID 0000.0001) %MON advcfl_wvel_max              =   2.8873446545193E-03
(PID.TID 0000.0001) %MON advcfl_W_hf_max              =   2.8873446545193E-03
(PID.TID 0000.0001) %MON pe_b_mean                    =  -8.3066836058900E-01
(PID.TID 0000.0001) %MON ke_max                       =   7.0783938424528E-05
(PID.TID 0000.0001) %MON ke_mean                      =   1.4310724766201E-07
(PID.TID 0000.0001) %MON ke_vol                       =   4.2724906599513E+12
(PID.TID 0000.0001) // =======================================================
(PID.TID 0000.0001) // End MONITOR dynamic field statistics
(PID.TID 0000.0001) // =======================================================
(PID.TID 0000.0001) // =======================================================
(PID.TID 0000.0001) // Begin OBCS MONITOR field statistics
(PID.TID 0000.0001) // =======================================================
(PID.TID 0000.0001) %MON obc_N_vVel_max               =   1.5089186378913E-05
(PID.TID 0000.0001) %MON obc_N_vVel_min               =   1.5089186378912E-05
(PID.TID 0000.0001) %MON obc_N_vVel_mean              =   1.5089186378913E-05
(PID.TID 0000.0001) %MON obc_N_vVel_sd                =  -2.9209815380779E-24
(PID.TID 0000.0001) %MON obc_N_vVel_Int               =   9.9588630100823E+02
(PID.TID 0000.0001) // =======================================================
(PID.TID 0000.0001) // End OBCS MONITOR field statistics
(PID.TID 0000.0001) // =======================================================
 cg2d: Sum(rhs),rhsMax =   4.51313654831169E+00  2.99922030210216E+02
(PID.TID 0000.0001)      cg2d_init_res =   6.47439592630455E-06
(PID.TID 0000.0001)      cg2d_iters(min,last) =      -1      80
(PID.TID 0000.0001)      cg2d_last_res =   9.69555534631968E-12
(PID.TID 0000.0001) // =======================================================
(PID.TID 0000.0001) // Begin MONITOR dynamic field statistics
(PID.TID 0000.0001) // =======================================================
(PID.TID 0000.0001) %MON time_tsnumber                =                   889
(PID.TID 0000.0001) %MON time_secondsf                =   8.8900000000000E+04
(PID.TID 0000.0001) %MON dynstat_eta_max              =   5.7962141370880E+00
(PID.TID 0000.0001) %MON dynstat_eta_min              =  -1.4196763690583E+01
(PID.TID 0000.0001) %MON dynstat_eta_mean             =  -2.5066464373807E+00
(PID.TID 0000.0001) %MON dynstat_eta_sd               =   4.9508250398729E+00
(PID.TID 0000.0001) %MON dynstat_eta_del2             =   2.0714659499327E-01
(PID.TID 0000.0001) %MON dynstat_uvel_max             =   3.4039594297681E-03
(PID.TID 0000.0001) %MON dynstat_uvel_min             =  -1.5206697821430E-02
(PID.TID 0000.0001) %MON dynstat_uvel_mean            =  -1.1715370952564E-07
(PID.TID 0000.0001) %MON dynstat_uvel_sd              =   4.5019971049469E-04
(PID.TID 0000.0001) %MON dynstat_uvel_del2            =   6.9929623356281E-07
(PID.TID 0000.0001) %MON dynstat_vvel_max             =   1.2255910705676E-02
(PID.TID 0000.0001) %MON dynstat_vvel_min             =  -5.5507090328772E-03
(PID.TID 0000.0001) %MON dynstat_vvel_mean            =   1.5389568158523E-05
(PID.TID 0000.0001) %MON dynstat_vvel_sd              =   2.9789334257295E-04
(PID.TID 0000.0001) %MON dynstat_vvel_del2            =   6.0439933003405E-07
(PID.TID 0000.0001) %MON dynstat_wvel_max             =   5.7919870881772E-04
(PID.TID 0000.0001) %MON dynstat_wvel_min             =  -5.7403985137184E-04
(PID.TID 0000.0001) %MON dynstat_wvel_mean            =   7.2644243470697E-09
(PID.TID 0000.0001) %MON dynstat_wvel_sd              =   1.6479377793787E-05
(PID.TID 0000.0001) %MON dynstat_wvel_del2            =   6.2322888144153E-08
(PID.TID 0000.0001) %MON dynstat_theta_max            =   1.2000000000000E+00
(PID.TID 0000.0001) %MON dynstat_theta_min            =  -1.0000000000000E+00
(PID.TID 0000.0001) %MON dynstat_theta_mean           =   5.6885513611415E-01
(PID.TID 0000.0001) %MON dynstat_theta_sd             =   8.6845002927800E-01
(PID.TID 0000.0001) %MON dynstat_theta_del2           =   1.9057533341441E-06
(PID.TID 0000.0001) %MON dynstat_salt_max             =   3.4700000000000E+01
(PID.TID 0000.0001) %MON dynstat_salt_min             =   3.4000000000000E+01
(PID.TID 0000.0001) %MON dynstat_salt_mean            =   3.4499156230856E+01
(PID.TID 0000.0001) %MON dynstat_salt_sd              =   2.7631637307776E-01
(PID.TID 0000.0001) %MON dynstat_salt_del2            =   7.4782743414196E-07
(PID.TID 0000.0001) %MON advcfl_uvel_max              =   1.5206697821430E-03
(PID.TID 0000.0001) %MON advcfl_vvel_max              =   1.2255910705676E-03
(PID.TID 0000.0001) %MON advcfl_wvel_max              =   2.8959935440886E-03
(PID.TID 0000.0001) %MON advcfl_W_hf_max              =   2.8959935440886E-03
(PID.TID 0000.0001) %MON pe_b_mean                    =  -8.3067157149871E-01
(PID.TID 0000.0001) %MON ke_max                       =   7.1235606896477E-05
(PID.TID 0000.0001) %MON ke_mean                      =   1.4381604533904E-07
(PID.TID 0000.0001) %MON ke_vol                       =   4.2724905900630E+12
(PID.TID 0000.0001) // =======================================================
(PID.TID 0000.0001) // End MONITOR dynamic field statistics
(PID.TID 0000.0001) // =======================================================
(PID.TID 0000.0001) // =======================================================
(PID.TID 0000.0001) // Begin OBCS MONITOR field statistics
(PID.TID 0000.0001) // =======================================================
(PID.TID 0000.0001) %MON obc_N_vVel_max               =   1.5100804926112E-05
(PID.TID 0000.0001) %MON obc_N_vVel_min               =   1.5100804926112E-05
(PID.TID 0000.0001) %MON obc_N_vVel_mean              =   1.5100804926112E-05
(PID.TID 0000.0001) %MON obc_N_vVel_sd                =  -3.6706139682041E-24
(PID.TID 0000.0001) %MON obc_N_vVel_Int               =   9.9665312512340E+02
(PID.TID 0000.0001) // =======================================================
(PID.TID 0000.0001) // End OBCS MONITOR field statistics
(PID.TID 0000.0001) // =======================================================
 cg2d: Sum(rhs),rhsMax =   4.51315646943037E+00  2.99922114552485E+02
(PID.TID 0000.0001)      cg2d_init_res =   6.48930570597935E-06
(PID.TID 0000.0001)      cg2d_iters(min,last) =      -1      80
(PID.TID 0000.0001)      cg2d_last_res =   9.70933924998691E-12
(PID.TID 0000.0001) // =======================================================
(PID.TID 0000.0001) // Begin MONITOR dynamic field statistics
(PID.TID 0000.0001) // =======================================================
(PID.TID 0000.0001) %MON time_tsnumber                =                   890
(PID.TID 0000.0001) %MON time_secondsf                =   8.9000000000000E+04
(PID.TID 0000.0001) %MON dynstat_eta_max              =   5.7962074484232E+00
(PID.TID 0000.0001) %MON dynstat_eta_min              =  -1.4196786989842E+01
(PID.TID 0000.0001) %MON dynstat_eta_mean             =  -2.5066582066996E+00
(PID.TID 0000.0001) %MON dynstat_eta_sd               =   4.9508291136572E+00
(PID.TID 0000.0001) %MON dynstat_eta_del2             =   2.0714661613858E-01
(PID.TID 0000.0001) %MON dynstat_uvel_max             =   3.4131963508521E-03
(PID.TID 0000.0001) %MON dynstat_uvel_min             =  -1.5247366509215E-02
(PID.TID 0000.0001) %MON dynstat_uvel_mean            =  -1.1708425374587E-07
(PID.TID 0000.0001) %MON dynstat_uvel_sd              =   4.5139115728627E-04
(PID.TID 0000.0001) %MON dynstat_uvel_del2            =   7.0078608891246E-07
(PID.TID 0000.0001) %MON dynstat_vvel_max             =   1.2287209329902E-02
(PID.TID 0000.0001) %MON dynstat_vvel_min             =  -5.5613969188339E-03
(PID.TID 0000.0001) %MON dynstat_vvel_mean            =   1.5400977348577E-05
(PID.TID 0000.0001) %MON dynstat_vvel_sd              =   2.9850664993193E-04
(PID.TID 0000.0001) %MON dynstat_vvel_del2            =   6.0567356465396E-07
(PID.TID 0000.0001) %MON dynstat_wvel_max             =   5.8093239290839E-04
(PID.TID 0000.0001) %MON dynstat_wvel_min             =  -5.7565205611287E-04
(PID.TID 0000.0001) %MON dynstat_wvel_mean            =   7.2686104322828E-09
(PID.TID 0000.0001) %MON dynstat_wvel_sd              =   1.6529930532566E-05
(PID.TID 0000.0001) %MON dynstat_wvel_del2            =   6.2850807469933E-08
(PID.TID 0000.0001) %MON dynstat_theta_max            =   1.2000000000000E+00
(PID.TID 0000.0001) %MON dynstat_theta_min            =  -1.0000000000000E+00
(PID.TID 0000.0001) %MON dynstat_theta_mean           =   5.6885453753658E-01
(PID.TID 0000.0001) %MON dynstat_theta_sd             =   8.6844970211278E-01
(PID.TID 0000.0001) %MON dynstat_theta_del2           =   1.9092930592813E-06
(PID.TID 0000.0001) %MON dynstat_salt_max             =   3.4700000000000E+01
(PID.TID 0000.0001) %MON dynstat_salt_min             =   3.4000000000000E+01
(PID.TID 0000.0001) %MON dynstat_salt_mean            =   3.4499155991461E+01
(PID.TID 0000.0001) %MON dynstat_salt_sd              =   2.7631624792628E-01
(PID.TID 0000.0001) %MON dynstat_salt_del2            =   7.4927398214417E-07
(PID.TID 0000.0001) %MON advcfl_uvel_max              =   1.5247366509215E-03
(PID.TID 0000.0001) %MON advcfl_vvel_max              =   1.2287209329902E-03
(PID.TID 0000.0001) %MON advcfl_wvel_max              =   2.9046619645420E-03
(PID.TID 0000.0001) %MON advcfl_W_hf_max              =   2.9046619645420E-03
(PID.TID 0000.0001) %MON pe_b_mean                    =  -8.3067478156243E-01
(PID.TID 0000.0001) %MON ke_max                       =   7.1689895874313E-05
(PID.TID 0000.0001) %MON ke_mean                      =   1.4452554988797E-07
(PID.TID 0000.0001) %MON ke_vol                       =   4.2724905201620E+12
(PID.TID 0000.0001) // =======================================================
(PID.TID 0000.0001) // End MONITOR dynamic field statistics
(PID.TID 0000.0001) // =======================================================
(PID.TID 0000.0001) // =======================================================
(PID.TID 0000.0001) // Begin OBCS MONITOR field statistics
(PID.TID 0000.0001) // =======================================================
(PID.TID 0000.0001) %MON obc_N_vVel_max               =   1.5111814986659E-05
(PID.TID 0000.0001) %MON obc_N_vVel_min               =   1.5111814986659E-05
(PID.TID 0000.0001) %MON obc_N_vVel_mean              =   1.5111814986659E-05
(PID.TID 0000.0001) %MON obc_N_vVel_sd                =  -5.4283727698792E-25
(PID.TID 0000.0001) %MON obc_N_vVel_Int               =   9.9737978911949E+02
(PID.TID 0000.0001) // =======================================================
(PID.TID 0000.0001) // End OBCS MONITOR field statistics
(PID.TID 0000.0001) // =======================================================
 cg2d: Sum(rhs),rhsMax =   4.51317639108859E+00  2.99922198936536E+02
(PID.TID 0000.0001)      cg2d_init_res =   6.50286259551684E-06
(PID.TID 0000.0001)      cg2d_iters(min,last) =      -1      80
(PID.TID 0000.0001)      cg2d_last_res =   9.72160721724604E-12
(PID.TID 0000.0001) // =======================================================
(PID.TID 0000.0001) // Begin MONITOR dynamic field statistics
(PID.TID 0000.0001) // =======================================================
(PID.TID 0000.0001) %MON time_tsnumber                =                   891
(PID.TID 0000.0001) %MON time_secondsf                =   8.9100000000000E+04
(PID.TID 0000.0001) %MON dynstat_eta_max              =   5.7962007762999E+00
(PID.TID 0000.0001) %MON dynstat_eta_min              =  -1.4196810292922E+01
(PID.TID 0000.0001) %MON dynstat_eta_mean             =  -2.5066699766736E+00
(PID.TID 0000.0001) %MON dynstat_eta_sd               =   4.9508331875481E+00
(PID.TID 0000.0001) %MON dynstat_eta_del2             =   2.0714663733590E-01
(PID.TID 0000.0001) %MON dynstat_uvel_max             =   3.4224535811482E-03
(PID.TID 0000.0001) %MON dynstat_uvel_min             =  -1.5288108505306E-02
(PID.TID 0000.0001) %MON dynstat_uvel_mean            =  -1.1700249041266E-07
(PID.TID 0000.0001) %MON dynstat_uvel_sd              =   4.5258575035662E-04
(PID.TID 0000.0001) %MON dynstat_uvel_del2            =   7.0228031671731E-07
(PID.TID 0000.0001) %MON dynstat_vvel_max             =   1.2318561994539E-02
(PID.TID 0000.0001) %MON dynstat_vvel_min             =  -5.5720968454684E-03
(PID.TID 0000.0001) %MON dynstat_vvel_mean            =   1.5411592414547E-05
(PID.TID 0000.0001) %MON dynstat_vvel_sd              =   2.9911101730878E-04
(PID.TID 0000.0001) %MON dynstat_vvel_del2            =   6.0692321705642E-07
(PID.TID 0000.0001) %MON dynstat_wvel_max             =   5.8266998699284E-04
(PID.TID 0000.0001) %MON dynstat_wvel_min             =  -5.7726813208435E-04
(PID.TID 0000.0001) %MON dynstat_wvel_mean            =   7.2715073639132E-09
(PID.TID 0000.0001) %MON dynstat_wvel_sd              =   1.6565492232413E-05
(PID.TID 0000.0001) %MON dynstat_wvel_del2            =   6.3272232992236E-08
(PID.TID 0000.0001) %MON dynstat_theta_max            =   1.2000000000000E+00
(PID.TID 0000.0001) %MON dynstat_theta_min            =  -1.0000000000000E+00
(PID.TID 0000.0001) %MON dynstat_theta_mean           =   5.6885393770708E-01
(PID.TID 0000.0001) %MON dynstat_theta_sd             =   8.6844937424174E-01
(PID.TID 0000.0001) %MON dynstat_theta_del2           =   1.9128703639931E-06
(PID.TID 0000.0001) %MON dynstat_salt_max             =   3.4700000000000E+01
(PID.TID 0000.0001) %MON dynstat_salt_min             =   3.4000000000000E+01
(PID.TID 0000.0001) %MON dynstat_salt_mean            =   3.4499155751561E+01
(PID.TID 0000.0001) %MON dynstat_salt_sd              =   2.7631612250098E-01
(PID.TID 0000.0001) %MON dynstat_salt_del2            =   7.5073118395449E-07
(PID.TID 0000.0001) %MON advcfl_uvel_max              =   1.5288108505306E-03
(PID.TID 0000.0001) %MON advcfl_vvel_max              =   1.2318561994539E-03
(PID.TID 0000.0001) %MON advcfl_wvel_max              =   2.9133499349642E-03
(PID.TID 0000.0001) %MON advcfl_W_hf_max              =   2.9133499349642E-03
(PID.TID 0000.0001) %MON pe_b_mean                    =  -8.3067799056016E-01
(PID.TID 0000.0001) %MON ke_max                       =   7.2146817686977E-05
(PID.TID 0000.0001) %MON ke_mean                      =   1.4523553183795E-07
(PID.TID 0000.0001) %MON ke_vol                       =   4.2724904502522E+12
(PID.TID 0000.0001) // =======================================================
(PID.TID 0000.0001) // End MONITOR dynamic field statistics
(PID.TID 0000.0001) // =======================================================
(PID.TID 0000.0001) // =======================================================
(PID.TID 0000.0001) // Begin OBCS MONITOR field statistics
(PID.TID 0000.0001) // =======================================================
(PID.TID 0000.0001) %MON obc_N_vVel_max               =   1.5122117666351E-05
(PID.TID 0000.0001) %MON obc_N_vVel_min               =   1.5122117666350E-05
(PID.TID 0000.0001) %MON obc_N_vVel_mean              =   1.5122117666351E-05
(PID.TID 0000.0001) %MON obc_N_vVel_sd                =  -1.1580528575742E-23
(PID.TID 0000.0001) %MON obc_N_vVel_Int               =   9.9805976597914E+02
(PID.TID 0000.0001) // =======================================================
(PID.TID 0000.0001) // End OBCS MONITOR field statistics
(PID.TID 0000.0001) // =======================================================
 cg2d: Sum(rhs),rhsMax =   4.51319631213867E+00  2.99922283330595E+02
(PID.TID 0000.0001)      cg2d_init_res =   6.51464260380538E-06
(PID.TID 0000.0001)      cg2d_iters(min,last) =      -1      80
(PID.TID 0000.0001)      cg2d_last_res =   9.73271416779491E-12
(PID.TID 0000.0001) // =======================================================
(PID.TID 0000.0001) // Begin MONITOR dynamic field statistics
(PID.TID 0000.0001) // =======================================================
(PID.TID 0000.0001) %MON time_tsnumber                =                   892
(PID.TID 0000.0001) %MON time_secondsf                =   8.9200000000000E+04
(PID.TID 0000.0001) %MON dynstat_eta_max              =   5.7961941219367E+00
(PID.TID 0000.0001) %MON dynstat_eta_min              =  -1.4196833598695E+01
(PID.TID 0000.0001) %MON dynstat_eta_mean             =  -2.5066817463997E+00
(PID.TID 0000.0001) %MON dynstat_eta_sd               =   4.9508372611829E+00
(PID.TID 0000.0001) %MON dynstat_eta_del2             =   2.0714665858493E-01
(PID.TID 0000.0001) %MON dynstat_uvel_max             =   3.4317311392371E-03
(PID.TID 0000.0001) %MON dynstat_uvel_min             =  -1.5328923757547E-02
(PID.TID 0000.0001) %MON dynstat_uvel_mean            =  -1.1691327289165E-07
(PID.TID 0000.0001) %MON dynstat_uvel_sd              =   4.5378345768144E-04
(PID.TID 0000.0001) %MON dynstat_uvel_del2            =   7.0377891045713E-07
(PID.TID 0000.0001) %MON dynstat_vvel_max             =   1.2349968717296E-02
(PID.TID 0000.0001) %MON dynstat_vvel_min             =  -5.5828088190584E-03
(PID.TID 0000.0001) %MON dynstat_vvel_mean            =   1.5421348680948E-05
(PID.TID 0000.0001) %MON dynstat_vvel_sd              =   2.9970599596257E-04
(PID.TID 0000.0001) %MON dynstat_vvel_del2            =   6.0813855193590E-07
(PID.TID 0000.0001) %MON dynstat_wvel_max             =   5.8441149517229E-04
(PID.TID 0000.0001) %MON dynstat_wvel_min             =  -5.7888808406319E-04
(PID.TID 0000.0001) %MON dynstat_wvel_mean            =   7.2733499235828E-09
(PID.TID 0000.0001) %MON dynstat_wvel_sd              =   1.6582570993310E-05
(PID.TID 0000.0001) %MON dynstat_wvel_del2            =   6.3553082214461E-08
(PID.TID 0000.0001) %MON dynstat_theta_max            =   1.2000000000000E+00
(PID.TID 0000.0001) %MON dynstat_theta_min            =  -1.0000000000000E+00
(PID.TID 0000.0001) %MON dynstat_theta_mean           =   5.6885333662905E-01
(PID.TID 0000.0001) %MON dynstat_theta_sd             =   8.6844904566178E-01
(PID.TID 0000.0001) %MON dynstat_theta_del2           =   1.9164957235144E-06
(PID.TID 0000.0001) %MON dynstat_salt_max             =   3.4700000000000E+01
(PID.TID 0000.0001) %MON dynstat_salt_min             =   3.4000000000000E+01
(PID.TID 0000.0001) %MON dynstat_salt_mean            =   3.4499155511157E+01
(PID.TID 0000.0001) %MON dynstat_salt_sd              =   2.7631599680070E-01
(PID.TID 0000.0001) %MON dynstat_salt_del2            =   7.5220177996822E-07
(PID.TID 0000.0001) %MON advcfl_uvel_max              =   1.5328923757547E-03
(PID.TID 0000.0001) %MON advcfl_vvel_max              =   1.2349968717296E-03
(PID.TID 0000.0001) %MON advcfl_wvel_max              =   2.9220574758615E-03
(PID.TID 0000.0001) %MON advcfl_W_hf_max              =   2.9220574758615E-03
(PID.TID 0000.0001) %MON pe_b_mean                    =  -8.3068119825724E-01
(PID.TID 0000.0001) %MON ke_max                       =   7.2606384792311E-05
(PID.TID 0000.0001) %MON ke_mean                      =   1.4594583629942E-07
(PID.TID 0000.0001) %MON ke_vol                       =   4.2724903803386E+12
(PID.TID 0000.0001) // =======================================================
(PID.TID 0000.0001) // End MONITOR dynamic field statistics
(PID.TID 0000.0001) // =======================================================
(PID.TID 0000.0001) // =======================================================
(PID.TID 0000.0001) // Begin OBCS MONITOR field statistics
(PID.TID 0000.0001) // =======================================================
(PID.TID 0000.0001) %MON obc_N_vVel_max               =   1.5131623127515E-05
(PID.TID 0000.0001) %MON obc_N_vVel_min               =   1.5131623127515E-05
(PID.TID 0000.0001) %MON obc_N_vVel_mean              =   1.5131623127515E-05
(PID.TID 0000.0001) %MON obc_N_vVel_sd                =  -1.1916570699592E-23
(PID.TID 0000.0001) %MON obc_N_vVel_Int               =   9.9868712641601E+02
(PID.TID 0000.0001) // =======================================================
(PID.TID 0000.0001) // End OBCS MONITOR field statistics
(PID.TID 0000.0001) // =======================================================
 cg2d: Sum(rhs),rhsMax =   4.51321623129504E+00  2.99922367701508E+02
(PID.TID 0000.0001)      cg2d_init_res =   6.52431809369924E-06
(PID.TID 0000.0001)      cg2d_iters(min,last) =      -1      80
(PID.TID 0000.0001)      cg2d_last_res =   9.74317799929181E-12
(PID.TID 0000.0001) // =======================================================
(PID.TID 0000.0001) // Begin MONITOR dynamic field statistics
(PID.TID 0000.0001) // =======================================================
(PID.TID 0000.0001) %MON time_tsnumber                =                   893
(PID.TID 0000.0001) %MON time_secondsf                =   8.9300000000000E+04
(PID.TID 0000.0001) %MON dynstat_eta_max              =   5.7961874866073E+00
(PID.TID 0000.0001) %MON dynstat_eta_min              =  -1.4196856905947E+01
(PID.TID 0000.0001) %MON dynstat_eta_mean             =  -2.5066935148868E+00
(PID.TID 0000.0001) %MON dynstat_eta_sd               =   4.9508413341830E+00
(PID.TID 0000.0001) %MON dynstat_eta_del2             =   2.0714667988532E-01
(PID.TID 0000.0001) %MON dynstat_uvel_max             =   3.4410290469573E-03
(PID.TID 0000.0001) %MON dynstat_uvel_min             =  -1.5369812215717E-02
(PID.TID 0000.0001) %MON dynstat_uvel_mean            =  -1.1682190478709E-07
(PID.TID 0000.0001) %MON dynstat_uvel_sd              =   4.5498424504457E-04
(PID.TID 0000.0001) %MON dynstat_uvel_del2            =   7.0528185703229E-07
(PID.TID 0000.0001) %MON dynstat_vvel_max             =   1.2381429496938E-02
(PID.TID 0000.0001) %MON dynstat_vvel_min             =  -5.5935328597831E-03
(PID.TID 0000.0001) %MON dynstat_vvel_mean            =   1.5430184699109E-05
(PID.TID 0000.0001) %MON dynstat_vvel_sd              =   3.0029144685536E-04
(PID.TID 0000.0001) %MON dynstat_vvel_del2            =   6.0931403574498E-07
(PID.TID 0000.0001) %MON dynstat_wvel_max             =   5.8615692185192E-04
(PID.TID 0000.0001) %MON dynstat_wvel_min             =  -5.8051191526387E-04
(PID.TID 0000.0001) %MON dynstat_wvel_mean            =   7.2742960423890E-09
(PID.TID 0000.0001) %MON dynstat_wvel_sd              =   1.6578962724656E-05
(PID.TID 0000.0001) %MON dynstat_wvel_del2            =   6.3673416512091E-08
(PID.TID 0000.0001) %MON dynstat_theta_max            =   1.2000000000000E+00
(PID.TID 0000.0001) %MON dynstat_theta_min            =  -1.0000000000000E+00
(PID.TID 0000.0001) %MON dynstat_theta_mean           =   5.6885273430439E-01
(PID.TID 0000.0001) %MON dynstat_theta_sd             =   8.6844871637833E-01
(PID.TID 0000.0001) %MON dynstat_theta_del2           =   1.9201755780682E-06
(PID.TID 0000.0001) %MON dynstat_salt_max             =   3.4700000000000E+01
(PID.TID 0000.0001) %MON dynstat_salt_min             =   3.4000000000000E+01
(PID.TID 0000.0001) %MON dynstat_salt_mean            =   3.4499155270250E+01
(PID.TID 0000.0001) %MON dynstat_salt_sd              =   2.7631587082704E-01
(PID.TID 0000.0001) %MON dynstat_salt_del2            =   7.5368739002554E-07
(PID.TID 0000.0001) %MON advcfl_uvel_max              =   1.5369812215717E-03
(PID.TID 0000.0001) %MON advcfl_vvel_max              =   1.2381429496938E-03
(PID.TID 0000.0001) %MON advcfl_wvel_max              =   2.9307846092596E-03
(PID.TID 0000.0001) %MON advcfl_W_hf_max              =   2.9307846092596E-03
(PID.TID 0000.0001) %MON pe_b_mean                    =  -8.3068440440401E-01
(PID.TID 0000.0001) %MON ke_max                       =   7.3068609756182E-05
(PID.TID 0000.0001) %MON ke_mean                      =   1.4665639951266E-07
(PID.TID 0000.0001) %MON ke_vol                       =   4.2724903104264E+12
(PID.TID 0000.0001) // =======================================================
(PID.TID 0000.0001) // End MONITOR dynamic field statistics
(PID.TID 0000.0001) // =======================================================
(PID.TID 0000.0001) // =======================================================
(PID.TID 0000.0001) // Begin OBCS MONITOR field statistics
(PID.TID 0000.0001) // =======================================================
(PID.TID 0000.0001) %MON obc_N_vVel_max               =   1.5140254538490E-05
(PID.TID 0000.0001) %MON obc_N_vVel_min               =   1.5140254538490E-05
(PID.TID 0000.0001) %MON obc_N_vVel_mean              =   1.5140254538490E-05
(PID.TID 0000.0001) %MON obc_N_vVel_sd                =  -1.7629286805036E-23
(PID.TID 0000.0001) %MON obc_N_vVel_Int               =   9.9925679954037E+02
(PID.TID 0000.0001) // =======================================================
(PID.TID 0000.0001) // End OBCS MONITOR field statistics
(PID.TID 0000.0001) // =======================================================
 cg2d: Sum(rhs),rhsMax =   4.51323614716706E+00  2.99922452014841E+02
(PID.TID 0000.0001)      cg2d_init_res =   6.53169273125379E-06
(PID.TID 0000.0001)      cg2d_iters(min,last) =      -1      80
(PID.TID 0000.0001)      cg2d_last_res =   9.75336100156451E-12
(PID.TID 0000.0001) // =======================================================
(PID.TID 0000.0001) // Begin MONITOR dynamic field statistics
(PID.TID 0000.0001) // =======================================================
(PID.TID 0000.0001) %MON time_tsnumber                =                   894
(PID.TID 0000.0001) %MON time_secondsf                =   8.9400000000000E+04
(PID.TID 0000.0001) %MON dynstat_eta_max              =   5.7961808717161E+00
(PID.TID 0000.0001) %MON dynstat_eta_min              =  -1.4196880213299E+01
(PID.TID 0000.0001) %MON dynstat_eta_mean             =  -2.5067052810747E+00
(PID.TID 0000.0001) %MON dynstat_eta_sd               =   4.9508454061522E+00
(PID.TID 0000.0001) %MON dynstat_eta_del2             =   2.0714670123654E-01
(PID.TID 0000.0001) %MON dynstat_uvel_max             =   3.4503473306557E-03
(PID.TID 0000.0001) %MON dynstat_uvel_min             =  -1.5410773828471E-02
(PID.TID 0000.0001) %MON dynstat_uvel_mean            =  -1.1673306933798E-07
(PID.TID 0000.0001) %MON dynstat_uvel_sd              =   4.5618807626594E-04
(PID.TID 0000.0001) %MON dynstat_uvel_del2            =   7.0678913655092E-07
(PID.TID 0000.0001) %MON dynstat_vvel_max             =   1.2412944315575E-02
(PID.TID 0000.0001) %MON dynstat_vvel_min             =  -5.6042689993356E-03
(PID.TID 0000.0001) %MON dynstat_vvel_mean            =   1.5438041657525E-05
(PID.TID 0000.0001) %MON dynstat_vvel_sd              =   3.0086757078601E-04
(PID.TID 0000.0001) %MON dynstat_vvel_del2            =   6.1044877897266E-07
(PID.TID 0000.0001) %MON dynstat_wvel_max             =   5.8790627160034E-04
(PID.TID 0000.0001) %MON dynstat_wvel_min             =  -5.8213962769321E-04
(PID.TID 0000.0001) %MON dynstat_wvel_mean            =   7.2744042130425E-09
(PID.TID 0000.0001) %MON dynstat_wvel_sd              =   1.6553892820136E-05
(PID.TID 0000.0001) %MON dynstat_wvel_del2            =   6.3628572254442E-08
(PID.TID 0000.0001) %MON dynstat_theta_max            =   1.2000000000000E+00
(PID.TID 0000.0001) %MON dynstat_theta_min            =  -1.0000000000000E+00
(PID.TID 0000.0001) %MON dynstat_theta_mean           =   5.6885213073383E-01
(PID.TID 0000.0001) %MON dynstat_theta_sd             =   8.6844838639932E-01
(PID.TID 0000.0001) %MON dynstat_theta_del2           =   1.9239113455810E-06
(PID.TID 0000.0001) %MON dynstat_salt_max             =   3.4700000000000E+01
(PID.TID 0000.0001) %MON dynstat_salt_min             =   3.4000000000000E+01
(PID.TID 0000.0001) %MON dynstat_salt_mean            =   3.4499155028840E+01
(PID.TID 0000.0001) %MON dynstat_salt_sd              =   2.7631574458242E-01
(PID.TID 0000.0001) %MON dynstat_salt_del2            =   7.5518837595665E-07
(PID.TID 0000.0001) %MON advcfl_uvel_max              =   1.5410773828471E-03
(PID.TID 0000.0001) %MON advcfl_vvel_max              =   1.2412944315575E-03
(PID.TID 0000.0001) %MON advcfl_wvel_max              =   2.9395313580017E-03
(PID.TID 0000.0001) %MON advcfl_W_hf_max              =   2.9395313580017E-03
(PID.TID 0000.0001) %MON pe_b_mean                    =  -8.3068760873679E-01
(PID.TID 0000.0001) %MON ke_max                       =   7.3533505207813E-05
(PID.TID 0000.0001) %MON ke_mean                      =   1.4736725892686E-07
(PID.TID 0000.0001) %MON ke_vol                       =   4.2724902405216E+12
(PID.TID 0000.0001) // =======================================================
(PID.TID 0000.0001) // End MONITOR dynamic field statistics
(PID.TID 0000.0001) // =======================================================
(PID.TID 0000.0001) // =======================================================
(PID.TID 0000.0001) // Begin OBCS MONITOR field statistics
(PID.TID 0000.0001) // =======================================================
(PID.TID 0000.0001) %MON obc_N_vVel_max               =   1.5147948880034E-05
(PID.TID 0000.0001) %MON obc_N_vVel_min               =   1.5147948880033E-05
(PID.TID 0000.0001) %MON obc_N_vVel_mean              =   1.5147948880033E-05
(PID.TID 0000.0001) %MON obc_N_vVel_sd                =   3.2115274033971E-12
(PID.TID 0000.0001) %MON obc_N_vVel_Int               =   9.9976462608221E+02
(PID.TID 0000.0001) // =======================================================
(PID.TID 0000.0001) // End OBCS MONITOR field statistics
(PID.TID 0000.0001) // =======================================================
 cg2d: Sum(rhs),rhsMax =   4.51325605828037E+00  2.99922536234921E+02
(PID.TID 0000.0001)      cg2d_init_res =   6.53671452374679E-06
(PID.TID 0000.0001)      cg2d_iters(min,last) =      -1      80
(PID.TID 0000.0001)      cg2d_last_res =   9.76360979713460E-12
(PID.TID 0000.0001) // =======================================================
(PID.TID 0000.0001) // Begin MONITOR dynamic field statistics
(PID.TID 0000.0001) // =======================================================
(PID.TID 0000.0001) %MON time_tsnumber                =                   895
(PID.TID 0000.0001) %MON time_secondsf                =   8.9500000000000E+04
(PID.TID 0000.0001) %MON dynstat_eta_max              =   5.7961742788577E+00
(PID.TID 0000.0001) %MON dynstat_eta_min              =  -1.4196903519184E+01
(PID.TID 0000.0001) %MON dynstat_eta_mean             =  -2.5067170438464E+00
(PID.TID 0000.0001) %MON dynstat_eta_sd               =   4.9508494766826E+00
(PID.TID 0000.0001) %MON dynstat_eta_del2             =   2.0714672263816E-01
(PID.TID 0000.0001) %MON dynstat_uvel_max             =   3.4596860225982E-03
(PID.TID 0000.0001) %MON dynstat_uvel_min             =  -1.5451808540703E-02
(PID.TID 0000.0001) %MON dynstat_uvel_mean            =  -1.1665007576868E-07
(PID.TID 0000.0001) %MON dynstat_uvel_sd              =   4.5739491362711E-04
(PID.TID 0000.0001) %MON dynstat_uvel_del2            =   7.0830072483931E-07
(PID.TID 0000.0001) %MON dynstat_vvel_max             =   1.2444513143771E-02
(PID.TID 0000.0001) %MON dynstat_vvel_min             =  -5.6150172772043E-03
(PID.TID 0000.0001) %MON dynstat_vvel_mean            =   1.5444862311528E-05
(PID.TID 0000.0001) %MON dynstat_vvel_sd              =   3.0143491450469E-04
(PID.TID 0000.0001) %MON dynstat_vvel_del2            =   6.1154651208811E-07
(PID.TID 0000.0001) %MON dynstat_wvel_max             =   5.8965954904058E-04
(PID.TID 0000.0001) %MON dynstat_wvel_min             =  -5.8377122264432E-04
(PID.TID 0000.0001) %MON dynstat_wvel_mean            =   7.2736281164636E-09
(PID.TID 0000.0001) %MON dynstat_wvel_sd              =   1.6508037677477E-05
(PID.TID 0000.0001) %MON dynstat_wvel_del2            =   6.3429154934539E-08
(PID.TID 0000.0001) %MON dynstat_theta_max            =   1.2000000000000E+00
(PID.TID 0000.0001) %MON dynstat_theta_min            =  -1.0000000000000E+00
(PID.TID 0000.0001) %MON dynstat_theta_mean           =   5.6885152591671E-01
(PID.TID 0000.0001) %MON dynstat_theta_sd             =   8.6844805573409E-01
(PID.TID 0000.0001) %MON dynstat_theta_del2           =   1.9276990766220E-06
(PID.TID 0000.0001) %MON dynstat_salt_max             =   3.4700000000000E+01
(PID.TID 0000.0001) %MON dynstat_salt_min             =   3.4000000000000E+01
(PID.TID 0000.0001) %MON dynstat_salt_mean            =   3.4499154786926E+01
(PID.TID 0000.0001) %MON dynstat_salt_sd              =   2.7631561806979E-01
(PID.TID 0000.0001) %MON dynstat_salt_del2            =   7.5670371002105E-07
(PID.TID 0000.0001) %MON advcfl_uvel_max              =   1.5451808540703E-03
(PID.TID 0000.0001) %MON advcfl_vvel_max              =   1.2444513143771E-03
(PID.TID 0000.0001) %MON advcfl_wvel_max              =   2.9482977452029E-03
(PID.TID 0000.0001) %MON advcfl_W_hf_max              =   2.9482977452029E-03
(PID.TID 0000.0001) %MON pe_b_mean                    =  -8.3069081097788E-01
(PID.TID 0000.0001) %MON ke_max                       =   7.4001083798096E-05
(PID.TID 0000.0001) %MON ke_mean                      =   1.4807855618191E-07
(PID.TID 0000.0001) %MON ke_vol                       =   4.2724901706304E+12
(PID.TID 0000.0001) // =======================================================
(PID.TID 0000.0001) // End MONITOR dynamic field statistics
(PID.TID 0000.0001) // =======================================================
(PID.TID 0000.0001) // =======================================================
(PID.TID 0000.0001) // Begin OBCS MONITOR field statistics
(PID.TID 0000.0001) // =======================================================
(PID.TID 0000.0001) %MON obc_N_vVel_max               =   1.5154655345526E-05
(PID.TID 0000.0001) %MON obc_N_vVel_min               =   1.5154655345526E-05
(PID.TID 0000.0001) %MON obc_N_vVel_mean              =   1.5154655345526E-05
(PID.TID 0000.0001) %MON obc_N_vVel_sd                =  -9.4867276502175E-24
(PID.TID 0000.0001) %MON obc_N_vVel_Int               =   1.0002072528047E+03
(PID.TID 0000.0001) // =======================================================
(PID.TID 0000.0001) // End OBCS MONITOR field statistics
(PID.TID 0000.0001) // =======================================================
 cg2d: Sum(rhs),rhsMax =   4.51327596309706E+00  2.99922620324903E+02
(PID.TID 0000.0001)      cg2d_init_res =   6.53945935176259E-06
(PID.TID 0000.0001)      cg2d_iters(min,last) =      -1      80
(PID.TID 0000.0001)      cg2d_last_res =   9.77402575359277E-12
(PID.TID 0000.0001) // =======================================================
(PID.TID 0000.0001) // Begin MONITOR dynamic field statistics
(PID.TID 0000.0001) // =======================================================
(PID.TID 0000.0001) %MON time_tsnumber                =                   896
(PID.TID 0000.0001) %MON time_secondsf                =   8.9600000000000E+04
(PID.TID 0000.0001) %MON dynstat_eta_max              =   5.7961677098370E+00
(PID.TID 0000.0001) %MON dynstat_eta_min              =  -1.4196926821825E+01
(PID.TID 0000.0001) %MON dynstat_eta_mean             =  -2.5067288020398E+00
(PID.TID 0000.0001) %MON dynstat_eta_sd               =   4.9508535453552E+00
(PID.TID 0000.0001) %MON dynstat_eta_del2             =   2.0714674408970E-01
(PID.TID 0000.0001) %MON dynstat_uvel_max             =   3.4690451605854E-03
(PID.TID 0000.0001) %MON dynstat_uvel_min             =  -1.5492916293802E-02
(PID.TID 0000.0001) %MON dynstat_uvel_mean            =  -1.1657449133632E-07
(PID.TID 0000.0001) %MON dynstat_uvel_sd              =   4.5860471830637E-04
(PID.TID 0000.0001) %MON dynstat_uvel_del2            =   7.0981659454232E-07
(PID.TID 0000.0001) %MON dynstat_vvel_max             =   1.2476135946407E-02
(PID.TID 0000.0001) %MON dynstat_vvel_min             =  -5.6257777361690E-03
(PID.TID 0000.0001) %MON dynstat_vvel_mean            =   1.5450589646446E-05
(PID.TID 0000.0001) %MON dynstat_vvel_sd              =   3.0199435291024E-04
(PID.TID 0000.0001) %MON dynstat_vvel_del2            =   6.1261510666223E-07
(PID.TID 0000.0001) %MON dynstat_wvel_max             =   5.9141675872678E-04
(PID.TID 0000.0001) %MON dynstat_wvel_min             =  -5.8540670100467E-04
(PID.TID 0000.0001) %MON dynstat_wvel_mean            =   7.2718306632876E-09
(PID.TID 0000.0001) %MON dynstat_wvel_sd              =   1.6443429435553E-05
(PID.TID 0000.0001) %MON dynstat_wvel_del2            =   6.3099951763247E-08
(PID.TID 0000.0001) %MON dynstat_theta_max            =   1.2000000000000E+00
(PID.TID 0000.0001) %MON dynstat_theta_min            =  -1.0000000000000E+00
(PID.TID 0000.0001) %MON dynstat_theta_mean           =   5.6885091985121E-01
(PID.TID 0000.0001) %MON dynstat_theta_sd             =   8.6844772439081E-01
(PID.TID 0000.0001) %MON dynstat_theta_del2           =   1.9315323829139E-06
(PID.TID 0000.0001) %MON dynstat_salt_max             =   3.4700000000000E+01
(PID.TID 0000.0001) %MON dynstat_salt_min             =   3.4000000000000E+01
(PID.TID 0000.0001) %MON dynstat_salt_mean            =   3.4499154544508E+01
(PID.TID 0000.0001) %MON dynstat_salt_sd              =   2.7631549129162E-01
(PID.TID 0000.0001) %MON dynstat_salt_del2            =   7.5823211474363E-07
(PID.TID 0000.0001) %MON advcfl_uvel_max              =   1.5492916293802E-03
(PID.TID 0000.0001) %MON advcfl_vvel_max              =   1.2476135946407E-03
(PID.TID 0000.0001) %MON advcfl_wvel_max              =   2.9570837936339E-03
(PID.TID 0000.0001) %MON advcfl_W_hf_max              =   2.9570837936339E-03
(PID.TID 0000.0001) %MON pe_b_mean                    =  -8.3069401083547E-01
(PID.TID 0000.0001) %MON ke_max                       =   7.4471358165173E-05
(PID.TID 0000.0001) %MON ke_mean                      =   1.4879053284566E-07
(PID.TID 0000.0001) %MON ke_vol                       =   4.2724901007596E+12
(PID.TID 0000.0001) // =======================================================
(PID.TID 0000.0001) // End MONITOR dynamic field statistics
(PID.TID 0000.0001) // =======================================================
(PID.TID 0000.0001) // =======================================================
(PID.TID 0000.0001) // Begin OBCS MONITOR field statistics
(PID.TID 0000.0001) // =======================================================
(PID.TID 0000.0001) %MON obc_N_vVel_max               =   1.5160331785209E-05
(PID.TID 0000.0001) %MON obc_N_vVel_min               =   1.5160331785208E-05
(PID.TID 0000.0001) %MON obc_N_vVel_mean              =   1.5160331785208E-05
(PID.TID 0000.0001) %MON obc_N_vVel_sd                =   3.7083524217224E-12
(PID.TID 0000.0001) %MON obc_N_vVel_Int               =   1.0005818978238E+03
(PID.TID 0000.0001) // =======================================================
(PID.TID 0000.0001) // End OBCS MONITOR field statistics
(PID.TID 0000.0001) // =======================================================
 cg2d: Sum(rhs),rhsMax =   4.51329586001979E+00  2.99922704246965E+02
(PID.TID 0000.0001)      cg2d_init_res =   6.54013540402863E-06
(PID.TID 0000.0001)      cg2d_iters(min,last) =      -1      80
(PID.TID 0000.0001)      cg2d_last_res =   9.78460631117459E-12
(PID.TID 0000.0001) // =======================================================
(PID.TID 0000.0001) // Begin MONITOR dynamic field statistics
(PID.TID 0000.0001) // =======================================================
(PID.TID 0000.0001) %MON time_tsnumber                =                   897
(PID.TID 0000.0001) %MON time_secondsf                =   8.9700000000000E+04
(PID.TID 0000.0001) %MON dynstat_eta_max              =   5.7961611666724E+00
(PID.TID 0000.0001) %MON dynstat_eta_min              =  -1.4196950119264E+01
(PID.TID 0000.0001) %MON dynstat_eta_mean             =  -2.5067405544514E+00
(PID.TID 0000.0001) %MON dynstat_eta_sd               =   4.9508576117440E+00
(PID.TID 0000.0001) %MON dynstat_eta_del2             =   2.0714676559122E-01
(PID.TID 0000.0001) %MON dynstat_uvel_max             =   3.4784247775619E-03
(PID.TID 0000.0001) %MON dynstat_uvel_min             =  -1.5534097021309E-02
(PID.TID 0000.0001) %MON dynstat_uvel_mean            =  -1.1650611882960E-07
(PID.TID 0000.0001) %MON dynstat_uvel_sd              =   4.5981745016119E-04
(PID.TID 0000.0001) %MON dynstat_uvel_del2            =   7.1133671441457E-07
(PID.TID 0000.0001) %MON dynstat_vvel_max             =   1.2507812688158E-02
(PID.TID 0000.0001) %MON dynstat_vvel_min             =  -5.6365504174503E-03
(PID.TID 0000.0001) %MON dynstat_vvel_mean            =   1.5455165498045E-05
(PID.TID 0000.0001) %MON dynstat_vvel_sd              =   3.0254704874589E-04
(PID.TID 0000.0001) %MON dynstat_vvel_del2            =   6.1366568840776E-07
(PID.TID 0000.0001) %MON dynstat_wvel_max             =   5.9317790507698E-04
(PID.TID 0000.0001) %MON dynstat_wvel_min             =  -5.8704606381620E-04
(PID.TID 0000.0001) %MON dynstat_wvel_mean            =   7.2688078688641E-09
(PID.TID 0000.0001) %MON dynstat_wvel_sd              =   1.6363253343492E-05
(PID.TID 0000.0001) %MON dynstat_wvel_del2            =   6.2677786809654E-08
(PID.TID 0000.0001) %MON dynstat_theta_max            =   1.2000000000000E+00
(PID.TID 0000.0001) %MON dynstat_theta_min            =  -1.0000000000000E+00
(PID.TID 0000.0001) %MON dynstat_theta_mean           =   5.6885031253424E-01
(PID.TID 0000.0001) %MON dynstat_theta_sd             =   8.6844739237333E-01
(PID.TID 0000.0001) %MON dynstat_theta_del2           =   1.9354017030707E-06
(PID.TID 0000.0001) %MON dynstat_salt_max             =   3.4700000000000E+01
(PID.TID 0000.0001) %MON dynstat_salt_min             =   3.4000000000000E+01
(PID.TID 0000.0001) %MON dynstat_salt_mean            =   3.4499154301584E+01
(PID.TID 0000.0001) %MON dynstat_salt_sd              =   2.7631536424921E-01
(PID.TID 0000.0001) %MON dynstat_salt_del2            =   7.5977109203282E-07
(PID.TID 0000.0001) %MON advcfl_uvel_max              =   1.5534097021309E-03
(PID.TID 0000.0001) %MON advcfl_vvel_max              =   1.2507812688158E-03
(PID.TID 0000.0001) %MON advcfl_wvel_max              =   2.9658895253849E-03
(PID.TID 0000.0001) %MON advcfl_W_hf_max              =   2.9658895253849E-03
(PID.TID 0000.0001) %MON pe_b_mean                    =  -8.3069720800247E-01
(PID.TID 0000.0001) %MON ke_max                       =   7.4944340870277E-05
(PID.TID 0000.0001) %MON ke_mean                      =   1.4950351895537E-07
(PID.TID 0000.0001) %MON ke_vol                       =   4.2724900309159E+12
(PID.TID 0000.0001) // =======================================================
(PID.TID 0000.0001) // End MONITOR dynamic field statistics
(PID.TID 0000.0001) // =======================================================
(PID.TID 0000.0001) // =======================================================
(PID.TID 0000.0001) // Begin OBCS MONITOR field statistics
(PID.TID 0000.0001) // =======================================================
(PID.TID 0000.0001) %MON obc_N_vVel_max               =   1.5164940309608E-05
(PID.TID 0000.0001) %MON obc_N_vVel_min               =   1.5164940309608E-05
(PID.TID 0000.0001) %MON obc_N_vVel_mean              =   1.5164940309608E-05
(PID.TID 0000.0001) %MON obc_N_vVel_sd                =  -1.1166938269466E-23
(PID.TID 0000.0001) %MON obc_N_vVel_Int               =   1.0008860604341E+03
(PID.TID 0000.0001) // =======================================================
(PID.TID 0000.0001) // End OBCS MONITOR field statistics
(PID.TID 0000.0001) // =======================================================
 cg2d: Sum(rhs),rhsMax =   4.51331574738732E+00  2.99922787962479E+02
(PID.TID 0000.0001)      cg2d_init_res =   6.53902416516456E-06
(PID.TID 0000.0001)      cg2d_iters(min,last) =      -1      80
(PID.TID 0000.0001)      cg2d_last_res =   9.79517634261049E-12
(PID.TID 0000.0001) // =======================================================
(PID.TID 0000.0001) // Begin MONITOR dynamic field statistics
(PID.TID 0000.0001) // =======================================================
(PID.TID 0000.0001) %MON time_tsnumber                =                   898
(PID.TID 0000.0001) %MON time_secondsf                =   8.9800000000000E+04
(PID.TID 0000.0001) %MON dynstat_eta_max              =   5.7961546515884E+00
(PID.TID 0000.0001) %MON dynstat_eta_min              =  -1.4196973409362E+01
(PID.TID 0000.0001) %MON dynstat_eta_mean             =  -2.5067522998359E+00
(PID.TID 0000.0001) %MON dynstat_eta_sd               =   4.9508616753998E+00
(PID.TID 0000.0001) %MON dynstat_eta_del2             =   2.0714678714228E-01
(PID.TID 0000.0001) %MON dynstat_uvel_max             =   3.4878249155526E-03
(PID.TID 0000.0001) %MON dynstat_uvel_min             =  -1.5575350645459E-02
(PID.TID 0000.0001) %MON dynstat_uvel_mean            =  -1.1644334806099E-07
(PID.TID 0000.0001) %MON dynstat_uvel_sd              =   4.6103306849344E-04
(PID.TID 0000.0001) %MON dynstat_uvel_del2            =   7.1286105281258E-07
(PID.TID 0000.0001) %MON dynstat_vvel_max             =   1.2539543337010E-02
(PID.TID 0000.0001) %MON dynstat_vvel_min             =  -5.6473353582644E-03
(PID.TID 0000.0001) %MON dynstat_vvel_mean            =   1.5458529494667E-05
(PID.TID 0000.0001) %MON dynstat_vvel_sd              =   3.0309439634027E-04
(PID.TID 0000.0001) %MON dynstat_vvel_del2            =   6.1471145846838E-07
(PID.TID 0000.0001) %MON dynstat_wvel_max             =   5.9494299234218E-04
(PID.TID 0000.0001) %MON dynstat_wvel_min             =  -5.8868931267863E-04
(PID.TID 0000.0001) %MON dynstat_wvel_mean            =   7.2643263936849E-09
(PID.TID 0000.0001) %MON dynstat_wvel_sd              =   1.6271553832687E-05
(PID.TID 0000.0001) %MON dynstat_wvel_del2            =   6.2208354589098E-08
(PID.TID 0000.0001) %MON dynstat_theta_max            =   1.2000000000000E+00
(PID.TID 0000.0001) %MON dynstat_theta_min            =  -1.0000000000000E+00
(PID.TID 0000.0001) %MON dynstat_theta_mean           =   5.6884970396169E-01
(PID.TID 0000.0001) %MON dynstat_theta_sd             =   8.6844705969021E-01
(PID.TID 0000.0001) %MON dynstat_theta_del2           =   1.9392952765646E-06
(PID.TID 0000.0001) %MON dynstat_salt_max             =   3.4700000000000E+01
(PID.TID 0000.0001) %MON dynstat_salt_min             =   3.4000000000000E+01
(PID.TID 0000.0001) %MON dynstat_salt_mean            =   3.4499154058153E+01
(PID.TID 0000.0001) %MON dynstat_salt_sd              =   2.7631523694493E-01
(PID.TID 0000.0001) %MON dynstat_salt_del2            =   7.6131762192889E-07
(PID.TID 0000.0001) %MON advcfl_uvel_max              =   1.5575350645459E-03
(PID.TID 0000.0001) %MON advcfl_vvel_max              =   1.2539543337010E-03
(PID.TID 0000.0001) %MON advcfl_wvel_max              =   2.9747149617109E-03
(PID.TID 0000.0001) %MON advcfl_W_hf_max              =   2.9747149617109E-03
(PID.TID 0000.0001) %MON pe_b_mean                    =  -8.3070040215539E-01
(PID.TID 0000.0001) %MON ke_max                       =   7.5420044460359E-05
(PID.TID 0000.0001) %MON ke_mean                      =   1.5021791700981E-07
(PID.TID 0000.0001) %MON ke_vol                       =   4.2724899611066E+12
(PID.TID 0000.0001) // =======================================================
(PID.TID 0000.0001) // End MONITOR dynamic field statistics
(PID.TID 0000.0001) // =======================================================
(PID.TID 0000.0001) // =======================================================
(PID.TID 0000.0001) // Begin OBCS MONITOR field statistics
(PID.TID 0000.0001) // =======================================================
(PID.TID 0000.0001) %MON obc_N_vVel_max               =   1.5168442841730E-05
(PID.TID 0000.0001) %MON obc_N_vVel_min               =   1.5168442841730E-05
(PID.TID 0000.0001) %MON obc_N_vVel_mean              =   1.5168442841730E-05
(PID.TID 0000.0001) %MON obc_N_vVel_sd                =   1.6708484573313E-12
(PID.TID 0000.0001) %MON obc_N_vVel_Int               =   1.0011172275542E+03
(PID.TID 0000.0001) // =======================================================
(PID.TID 0000.0001) // End OBCS MONITOR field statistics
(PID.TID 0000.0001) // =======================================================
 cg2d: Sum(rhs),rhsMax =   4.51333562346577E+00  2.99922871432124E+02
(PID.TID 0000.0001)      cg2d_init_res =   6.53647093502999E-06
(PID.TID 0000.0001)      cg2d_iters(min,last) =      -1      80
(PID.TID 0000.0001)      cg2d_last_res =   9.80549903646490E-12
(PID.TID 0000.0001) // =======================================================
(PID.TID 0000.0001) // Begin MONITOR dynamic field statistics
(PID.TID 0000.0001) // =======================================================
(PID.TID 0000.0001) %MON time_tsnumber                =                   899
(PID.TID 0000.0001) %MON time_secondsf                =   8.9900000000000E+04
(PID.TID 0000.0001) %MON dynstat_eta_max              =   5.7961481669901E+00
(PID.TID 0000.0001) %MON dynstat_eta_min              =  -1.4196996689855E+01
(PID.TID 0000.0001) %MON dynstat_eta_mean             =  -2.5067640369014E+00
(PID.TID 0000.0001) %MON dynstat_eta_sd               =   4.9508657358546E+00
(PID.TID 0000.0001) %MON dynstat_eta_del2             =   2.0714680874247E-01
(PID.TID 0000.0001) %MON dynstat_uvel_max             =   3.4972456142732E-03
(PID.TID 0000.0001) %MON dynstat_uvel_min             =  -1.5616677091749E-02
(PID.TID 0000.0001) %MON dynstat_uvel_mean            =  -1.1638367564495E-07
(PID.TID 0000.0001) %MON dynstat_uvel_sd              =   4.6225153236707E-04
(PID.TID 0000.0001) %MON dynstat_uvel_del2            =   7.1438957780612E-07
(PID.TID 0000.0001) %MON dynstat_vvel_max             =   1.2571327866170E-02
(PID.TID 0000.0001) %MON dynstat_vvel_min             =  -5.6581325921474E-03
(PID.TID 0000.0001) %MON dynstat_vvel_mean            =   1.5460618478551E-05
(PID.TID 0000.0001) %MON dynstat_vvel_sd              =   3.0363795311269E-04
(PID.TID 0000.0001) %MON dynstat_vvel_del2            =   6.1576632519364E-07
(PID.TID 0000.0001) %MON dynstat_wvel_max             =   5.9671202465299E-04
(PID.TID 0000.0001) %MON dynstat_wvel_min             =  -5.9033644956751E-04
(PID.TID 0000.0001) %MON dynstat_wvel_mean            =   7.2581530488683E-09
(PID.TID 0000.0001) %MON dynstat_wvel_sd              =   1.6172871014001E-05
(PID.TID 0000.0001) %MON dynstat_wvel_del2            =   6.1742100692983E-08
(PID.TID 0000.0001) %MON dynstat_theta_max            =   1.2000000000000E+00
(PID.TID 0000.0001) %MON dynstat_theta_min            =  -1.0000000000000E+00
(PID.TID 0000.0001) %MON dynstat_theta_mean           =   5.6884909412771E-01
(PID.TID 0000.0001) %MON dynstat_theta_sd             =   8.6844672634710E-01
(PID.TID 0000.0001) %MON dynstat_theta_del2           =   1.9432008549160E-06
(PID.TID 0000.0001) %MON dynstat_salt_max             =   3.4700000000000E+01
(PID.TID 0000.0001) %MON dynstat_salt_min             =   3.4000000000000E+01
(PID.TID 0000.0001) %MON dynstat_salt_mean            =   3.4499153814213E+01
(PID.TID 0000.0001) %MON dynstat_salt_sd              =   2.7631510938067E-01
(PID.TID 0000.0001) %MON dynstat_salt_del2            =   7.6286860563049E-07
(PID.TID 0000.0001) %MON advcfl_uvel_max              =   1.5616677091749E-03
(PID.TID 0000.0001) %MON advcfl_vvel_max              =   1.2571327866170E-03
(PID.TID 0000.0001) %MON advcfl_wvel_max              =   2.9835601232649E-03
(PID.TID 0000.0001) %MON advcfl_W_hf_max              =   2.9835601232649E-03
(PID.TID 0000.0001) %MON pe_b_mean                    =  -8.3070359295357E-01
(PID.TID 0000.0001) %MON ke_max                       =   7.5898481525110E-05
(PID.TID 0000.0001) %MON ke_mean                      =   1.5093418186271E-07
(PID.TID 0000.0001) %MON ke_vol                       =   4.2724898913390E+12
(PID.TID 0000.0001) // =======================================================
(PID.TID 0000.0001) // End MONITOR dynamic field statistics
(PID.TID 0000.0001) // =======================================================
(PID.TID 0000.0001) // =======================================================
(PID.TID 0000.0001) // Begin OBCS MONITOR field statistics
(PID.TID 0000.0001) // =======================================================
(PID.TID 0000.0001) %MON obc_N_vVel_max               =   1.5170797695862E-05
(PID.TID 0000.0001) %MON obc_N_vVel_min               =   1.5170797695862E-05
(PID.TID 0000.0001) %MON obc_N_vVel_mean              =   1.5170797695862E-05
(PID.TID 0000.0001) %MON obc_N_vVel_sd                =   1.5337192920961E-12
(PID.TID 0000.0001) %MON obc_N_vVel_Int               =   1.0012726479269E+03
(PID.TID 0000.0001) // =======================================================
(PID.TID 0000.0001) // End OBCS MONITOR field statistics
(PID.TID 0000.0001) // =======================================================
 cg2d: Sum(rhs),rhsMax =   4.51335548643431E+00  2.99922954616144E+02
(PID.TID 0000.0001)      cg2d_init_res =   6.53285124091233E-06
(PID.TID 0000.0001)      cg2d_iters(min,last) =      -1      80
(PID.TID 0000.0001)      cg2d_last_res =   9.81539671508319E-12
(PID.TID 0000.0001) // =======================================================
(PID.TID 0000.0001) // Begin MONITOR dynamic field statistics
(PID.TID 0000.0001) // =======================================================
(PID.TID 0000.0001) %MON time_tsnumber                =                   900
(PID.TID 0000.0001) %MON time_secondsf                =   9.0000000000000E+04
(PID.TID 0000.0001) %MON dynstat_eta_max              =   5.7961417154389E+00
(PID.TID 0000.0001) %MON dynstat_eta_min              =  -1.4197019958362E+01
(PID.TID 0000.0001) %MON dynstat_eta_mean             =  -2.5067757643044E+00
(PID.TID 0000.0001) %MON dynstat_eta_sd               =   4.9508697926169E+00
(PID.TID 0000.0001) %MON dynstat_eta_del2             =   2.0714683039137E-01
(PID.TID 0000.0001) %MON dynstat_uvel_max             =   3.5066869088602E-03
(PID.TID 0000.0001) %MON dynstat_uvel_min             =  -1.5658076286634E-02
(PID.TID 0000.0001) %MON dynstat_uvel_mean            =  -1.1632427934724E-07
(PID.TID 0000.0001) %MON dynstat_uvel_sd              =   4.6347280104860E-04
(PID.TID 0000.0001) %MON dynstat_uvel_del2            =   7.1592225998044E-07
(PID.TID 0000.0001) %MON dynstat_vvel_max             =   1.2603166254288E-02
(PID.TID 0000.0001) %MON dynstat_vvel_min             =  -5.6689421479943E-03
(PID.TID 0000.0001) %MON dynstat_vvel_mean            =   1.5461366532797E-05
(PID.TID 0000.0001) %MON dynstat_vvel_sd              =   3.0417936593176E-04
(PID.TID 0000.0001) %MON dynstat_vvel_del2            =   6.1684349146405E-07
(PID.TID 0000.0001) %MON dynstat_wvel_max             =   5.9848500603385E-04
(PID.TID 0000.0001) %MON dynstat_wvel_min             =  -5.9198747670040E-04
(PID.TID 0000.0001) %MON dynstat_wvel_mean            =   7.2500847089892E-09
(PID.TID 0000.0001) %MON dynstat_wvel_sd              =   1.6071836997809E-05
(PID.TID 0000.0001) %MON dynstat_wvel_del2            =   6.1329359398274E-08
(PID.TID 0000.0001) %MON dynstat_theta_max            =   1.2000000000000E+00
(PID.TID 0000.0001) %MON dynstat_theta_min            =  -1.0000000000000E+00
(PID.TID 0000.0001) %MON dynstat_theta_mean           =   5.6884848302562E-01
(PID.TID 0000.0001) %MON dynstat_theta_sd             =   8.6844639234470E-01
(PID.TID 0000.0001) %MON dynstat_theta_del2           =   1.9471070773175E-06
(PID.TID 0000.0001) %MON dynstat_salt_max             =   3.4700000000000E+01
(PID.TID 0000.0001) %MON dynstat_salt_min             =   3.4000000000000E+01
(PID.TID 0000.0001) %MON dynstat_salt_mean            =   3.4499153569761E+01
(PID.TID 0000.0001) %MON dynstat_salt_sd              =   2.7631498155644E-01
(PID.TID 0000.0001) %MON dynstat_salt_del2            =   7.6442116107347E-07
(PID.TID 0000.0001) %MON advcfl_uvel_max              =   1.5658076286634E-03
(PID.TID 0000.0001) %MON advcfl_vvel_max              =   1.2603166254288E-03
(PID.TID 0000.0001) %MON advcfl_wvel_max              =   2.9924250301693E-03
(PID.TID 0000.0001) %MON advcfl_W_hf_max              =   2.9924250301693E-03
(PID.TID 0000.0001) %MON pe_b_mean                    =  -8.3070678003867E-01
(PID.TID 0000.0001) %MON ke_max                       =   7.6379664690902E-05
(PID.TID 0000.0001) %MON ke_mean                      =   1.5165279890022E-07
(PID.TID 0000.0001) %MON ke_vol                       =   4.2724898216208E+12
(PID.TID 0000.0001) // =======================================================
(PID.TID 0000.0001) // End MONITOR dynamic field statistics
(PID.TID 0000.0001) // =======================================================
(PID.TID 0000.0001) // =======================================================
(PID.TID 0000.0001) // Begin OBCS MONITOR field statistics
(PID.TID 0000.0001) // =======================================================
(PID.TID 0000.0001) %MON obc_N_vVel_max               =   1.5171957217049E-05
(PID.TID 0000.0001) %MON obc_N_vVel_min               =   1.5171957217048E-05
(PID.TID 0000.0001) %MON obc_N_vVel_mean              =   1.5171957217049E-05
(PID.TID 0000.0001) %MON obc_N_vVel_sd                =  -2.2488972903785E-23
(PID.TID 0000.0001) %MON obc_N_vVel_Int               =   1.0013491763252E+03
(PID.TID 0000.0001) // =======================================================
(PID.TID 0000.0001) // End OBCS MONITOR field statistics
(PID.TID 0000.0001) // =======================================================
 cg2d: Sum(rhs),rhsMax =   4.51337533436608E+00  2.99923037474501E+02
(PID.TID 0000.0001)      cg2d_init_res =   6.52851330116854E-06
(PID.TID 0000.0001)      cg2d_iters(min,last) =      -1      80
(PID.TID 0000.0001)      cg2d_last_res =   9.82478107421442E-12
(PID.TID 0000.0001) // =======================================================
(PID.TID 0000.0001) // Begin MONITOR dynamic field statistics
(PID.TID 0000.0001) // =======================================================
(PID.TID 0000.0001) %MON time_tsnumber                =                   901
(PID.TID 0000.0001) %MON time_secondsf                =   9.0100000000000E+04
(PID.TID 0000.0001) %MON dynstat_eta_max              =   5.7961352996320E+00
(PID.TID 0000.0001) %MON dynstat_eta_min              =  -1.4197043212391E+01
(PID.TID 0000.0001) %MON dynstat_eta_mean             =  -2.5067874806399E+00
(PID.TID 0000.0001) %MON dynstat_eta_sd               =   4.9508738451691E+00
(PID.TID 0000.0001) %MON dynstat_eta_del2             =   2.0714685208845E-01
(PID.TID 0000.0001) %MON dynstat_uvel_max             =   3.5161488319595E-03
(PID.TID 0000.0001) %MON dynstat_uvel_min             =  -1.5699548157578E-02
(PID.TID 0000.0001) %MON dynstat_uvel_mean            =  -1.1626253157596E-07
(PID.TID 0000.0001) %MON dynstat_uvel_sd              =   4.6469683443696E-04
(PID.TID 0000.0001) %MON dynstat_uvel_del2            =   7.1745907408879E-07
(PID.TID 0000.0001) %MON dynstat_vvel_max             =   1.2635058484405E-02
(PID.TID 0000.0001) %MON dynstat_vvel_min             =  -5.6797640507433E-03
(PID.TID 0000.0001) %MON dynstat_vvel_mean            =   1.5460705650248E-05
(PID.TID 0000.0001) %MON dynstat_vvel_sd              =   3.0472029903858E-04
(PID.TID 0000.0001) %MON dynstat_vvel_del2            =   6.1795413772483E-07
(PID.TID 0000.0001) %MON dynstat_wvel_max             =   6.0026194047452E-04
(PID.TID 0000.0001) %MON dynstat_wvel_min             =  -5.9364239665329E-04
(PID.TID 0000.0001) %MON dynstat_wvel_mean            =   7.2399656298041E-09
(PID.TID 0000.0001) %MON dynstat_wvel_sd              =   1.5972767854278E-05
(PID.TID 0000.0001) %MON dynstat_wvel_del2            =   6.1015141619028E-08
(PID.TID 0000.0001) %MON dynstat_theta_max            =   1.2000000000000E+00
(PID.TID 0000.0001) %MON dynstat_theta_min            =  -1.0000000000000E+00
(PID.TID 0000.0001) %MON dynstat_theta_mean           =   5.6884787064755E-01
(PID.TID 0000.0001) %MON dynstat_theta_sd             =   8.6844605767920E-01
(PID.TID 0000.0001) %MON dynstat_theta_del2           =   1.9510045685921E-06
(PID.TID 0000.0001) %MON dynstat_salt_max             =   3.4700000000000E+01
(PID.TID 0000.0001) %MON dynstat_salt_min             =   3.4000000000000E+01
(PID.TID 0000.0001) %MON dynstat_salt_mean            =   3.4499153324796E+01
(PID.TID 0000.0001) %MON dynstat_salt_sd              =   2.7631485347103E-01
(PID.TID 0000.0001) %MON dynstat_salt_del2            =   7.6597293257881E-07
(PID.TID 0000.0001) %MON advcfl_uvel_max              =   1.5699548157578E-03
(PID.TID 0000.0001) %MON advcfl_vvel_max              =   1.2635058484405E-03
(PID.TID 0000.0001) %MON advcfl_wvel_max              =   3.0013097023726E-03
(PID.TID 0000.0001) %MON advcfl_W_hf_max              =   3.0013097023726E-03
(PID.TID 0000.0001) %MON pe_b_mean                    =  -8.3070996303393E-01
(PID.TID 0000.0001) %MON ke_max                       =   7.6863606638688E-05
(PID.TID 0000.0001) %MON ke_mean                      =   1.5237426248165E-07
(PID.TID 0000.0001) %MON ke_vol                       =   4.2724897519600E+12
(PID.TID 0000.0001) // =======================================================
(PID.TID 0000.0001) // End MONITOR dynamic field statistics
(PID.TID 0000.0001) // =======================================================
(PID.TID 0000.0001) // =======================================================
(PID.TID 0000.0001) // Begin OBCS MONITOR field statistics
(PID.TID 0000.0001) // =======================================================
(PID.TID 0000.0001) %MON obc_N_vVel_max               =   1.5171867193513E-05
(PID.TID 0000.0001) %MON obc_N_vVel_min               =   1.5171867193513E-05
(PID.TID 0000.0001) %MON obc_N_vVel_mean              =   1.5171867193513E-05
(PID.TID 0000.0001) %MON obc_N_vVel_sd                =  -9.2023843146524E-24
(PID.TID 0000.0001) %MON obc_N_vVel_Int               =   1.0013432347718E+03
(PID.TID 0000.0001) // =======================================================
(PID.TID 0000.0001) // End OBCS MONITOR field statistics
(PID.TID 0000.0001) // =======================================================
 cg2d: Sum(rhs),rhsMax =   4.51339516521428E+00  2.99923119967130E+02
(PID.TID 0000.0001)      cg2d_init_res =   6.52375479387294E-06
(PID.TID 0000.0001)      cg2d_iters(min,last) =      -1      80
(PID.TID 0000.0001)      cg2d_last_res =   9.83358216034460E-12
(PID.TID 0000.0001) // =======================================================
(PID.TID 0000.0001) // Begin MONITOR dynamic field statistics
(PID.TID 0000.0001) // =======================================================
(PID.TID 0000.0001) %MON time_tsnumber                =                   902
(PID.TID 0000.0001) %MON time_secondsf                =   9.0200000000000E+04
(PID.TID 0000.0001) %MON dynstat_eta_max              =   5.7961289223827E+00
(PID.TID 0000.0001) %MON dynstat_eta_min              =  -1.4197066449370E+01
(PID.TID 0000.0001) %MON dynstat_eta_mean             =  -2.5067991844363E+00
(PID.TID 0000.0001) %MON dynstat_eta_sd               =   4.9508778929703E+00
(PID.TID 0000.0001) %MON dynstat_eta_del2             =   2.0714687383325E-01
(PID.TID 0000.0001) %MON dynstat_uvel_max             =   3.5256314137122E-03
(PID.TID 0000.0001) %MON dynstat_uvel_min             =  -1.5741092635409E-02
(PID.TID 0000.0001) %MON dynstat_uvel_mean            =  -1.1619638398491E-07
(PID.TID 0000.0001) %MON dynstat_uvel_sd              =   4.6592359347690E-04
(PID.TID 0000.0001) %MON dynstat_uvel_del2            =   7.1900000029345E-07
(PID.TID 0000.0001) %MON dynstat_vvel_max             =   1.2667004542656E-02
(PID.TID 0000.0001) %MON dynstat_vvel_min             =  -5.6905983222082E-03
(PID.TID 0000.0001) %MON dynstat_vvel_mean            =   1.5458567004980E-05
(PID.TID 0000.0001) %MON dynstat_vvel_sd              =   3.0526236980785E-04
(PID.TID 0000.0001) %MON dynstat_vvel_del2            =   6.1910633153526E-07
(PID.TID 0000.0001) %MON dynstat_wvel_max             =   6.0204283196571E-04
(PID.TID 0000.0001) %MON dynstat_wvel_min             =  -5.9530121217255E-04
(PID.TID 0000.0001) %MON dynstat_wvel_mean            =   7.2276984113727E-09
(PID.TID 0000.0001) %MON dynstat_wvel_sd              =   1.5879291763595E-05
(PID.TID 0000.0001) %MON dynstat_wvel_del2            =   6.0834176099652E-08
(PID.TID 0000.0001) %MON dynstat_theta_max            =   1.2000000000000E+00
(PID.TID 0000.0001) %MON dynstat_theta_min            =  -1.0000000000000E+00
(PID.TID 0000.0001) %MON dynstat_theta_mean           =   5.6884725698469E-01
(PID.TID 0000.0001) %MON dynstat_theta_sd             =   8.6844572234184E-01
(PID.TID 0000.0001) %MON dynstat_theta_del2           =   1.9548869397338E-06
(PID.TID 0000.0001) %MON dynstat_salt_max             =   3.4700000000000E+01
(PID.TID 0000.0001) %MON dynstat_salt_min             =   3.4000000000000E+01
(PID.TID 0000.0001) %MON dynstat_salt_mean            =   3.4499153079314E+01
(PID.TID 0000.0001) %MON dynstat_salt_sd              =   2.7631472512167E-01
(PID.TID 0000.0001) %MON dynstat_salt_del2            =   7.6752233686461E-07
(PID.TID 0000.0001) %MON advcfl_uvel_max              =   1.5741092635409E-03
(PID.TID 0000.0001) %MON advcfl_vvel_max              =   1.2667004542656E-03
(PID.TID 0000.0001) %MON advcfl_wvel_max              =   3.0102141598285E-03
(PID.TID 0000.0001) %MON advcfl_W_hf_max              =   3.0102141598285E-03
(PID.TID 0000.0001) %MON pe_b_mean                    =  -8.3071314154495E-01
(PID.TID 0000.0001) %MON ke_max                       =   7.7350320134198E-05
(PID.TID 0000.0001) %MON ke_mean                      =   1.5309905656819E-07
(PID.TID 0000.0001) %MON ke_vol                       =   4.2724896823650E+12
(PID.TID 0000.0001) // =======================================================
(PID.TID 0000.0001) // End MONITOR dynamic field statistics
(PID.TID 0000.0001) // =======================================================
(PID.TID 0000.0001) // =======================================================
(PID.TID 0000.0001) // Begin OBCS MONITOR field statistics
(PID.TID 0000.0001) // =======================================================
(PID.TID 0000.0001) %MON obc_N_vVel_max               =   1.5170467556047E-05
(PID.TID 0000.0001) %MON obc_N_vVel_min               =   1.5170467556046E-05
(PID.TID 0000.0001) %MON obc_N_vVel_mean              =   1.5170467556047E-05
(PID.TID 0000.0001) %MON obc_N_vVel_sd                =  -1.1839022517165E-23
(PID.TID 0000.0001) %MON obc_N_vVel_Int               =   1.0012508586991E+03
(PID.TID 0000.0001) // =======================================================
(PID.TID 0000.0001) // End OBCS MONITOR field statistics
(PID.TID 0000.0001) // =======================================================
 cg2d: Sum(rhs),rhsMax =   4.51341497679497E+00  2.99923202054290E+02
(PID.TID 0000.0001)      cg2d_init_res =   6.51878417591175E-06
(PID.TID 0000.0001)      cg2d_iters(min,last) =      -1      80
(PID.TID 0000.0001)      cg2d_last_res =   9.84187941231646E-12
(PID.TID 0000.0001) // =======================================================
(PID.TID 0000.0001) // Begin MONITOR dynamic field statistics
(PID.TID 0000.0001) // =======================================================
(PID.TID 0000.0001) %MON time_tsnumber                =                   903
(PID.TID 0000.0001) %MON time_secondsf                =   9.0300000000000E+04
(PID.TID 0000.0001) %MON dynstat_eta_max              =   5.7961225866091E+00
(PID.TID 0000.0001) %MON dynstat_eta_min              =  -1.4197089666623E+01
(PID.TID 0000.0001) %MON dynstat_eta_mean             =  -2.5068108741484E+00
(PID.TID 0000.0001) %MON dynstat_eta_sd               =   4.9508819354576E+00
(PID.TID 0000.0001) %MON dynstat_eta_del2             =   2.0714689562541E-01
(PID.TID 0000.0001) %MON dynstat_uvel_max             =   3.5351346812220E-03
(PID.TID 0000.0001) %MON dynstat_uvel_min             =  -1.5782709654744E-02
(PID.TID 0000.0001) %MON dynstat_uvel_mean            =  -1.1612459286888E-07
(PID.TID 0000.0001) %MON dynstat_uvel_sd              =   4.6715304057054E-04
(PID.TID 0000.0001) %MON dynstat_uvel_del2            =   7.2054502511171E-07
(PID.TID 0000.0001) %MON dynstat_vvel_max             =   1.2699004416675E-02
(PID.TID 0000.0001) %MON dynstat_vvel_min             =  -5.7014449828570E-03
(PID.TID 0000.0001) %MON dynstat_vvel_mean            =   1.5454882697601E-05
(PID.TID 0000.0001) %MON dynstat_vvel_sd              =   3.0580709742364E-04
(PID.TID 0000.0001) %MON dynstat_vvel_del2            =   6.2030426885888E-07
(PID.TID 0000.0001) %MON dynstat_wvel_max             =   6.0382768449299E-04
(PID.TID 0000.0001) %MON dynstat_wvel_min             =  -5.9696392602421E-04
(PID.TID 0000.0001) %MON dynstat_wvel_mean            =   7.2132411071899E-09
(PID.TID 0000.0001) %MON dynstat_wvel_sd              =   1.5794053894866E-05
(PID.TID 0000.0001) %MON dynstat_wvel_del2            =   6.0806936686618E-08
(PID.TID 0000.0001) %MON dynstat_theta_max            =   1.2000000000000E+00
(PID.TID 0000.0001) %MON dynstat_theta_min            =  -1.0000000000000E+00
(PID.TID 0000.0001) %MON dynstat_theta_mean           =   5.6884664202728E-01
(PID.TID 0000.0001) %MON dynstat_theta_sd             =   8.6844538632327E-01
(PID.TID 0000.0001) %MON dynstat_theta_del2           =   1.9587513699259E-06
(PID.TID 0000.0001) %MON dynstat_salt_max             =   3.4700000000000E+01
(PID.TID 0000.0001) %MON dynstat_salt_min             =   3.4000000000000E+01
(PID.TID 0000.0001) %MON dynstat_salt_mean            =   3.4499152833311E+01
(PID.TID 0000.0001) %MON dynstat_salt_sd              =   2.7631459650541E-01
(PID.TID 0000.0001) %MON dynstat_salt_del2            =   7.6906872017501E-07
(PID.TID 0000.0001) %MON advcfl_uvel_max              =   1.5782709654744E-03
(PID.TID 0000.0001) %MON advcfl_vvel_max              =   1.2699004416675E-03
(PID.TID 0000.0001) %MON advcfl_wvel_max              =   3.0191384224649E-03
(PID.TID 0000.0001) %MON advcfl_W_hf_max              =   3.0191384224649E-03
(PID.TID 0000.0001) %MON pe_b_mean                    =  -8.3071631515981E-01
(PID.TID 0000.0001) %MON ke_max                       =   7.7839818036660E-05
(PID.TID 0000.0001) %MON ke_mean                      =   1.5382763912901E-07
(PID.TID 0000.0001) %MON ke_vol                       =   4.2724896128444E+12
(PID.TID 0000.0001) // =======================================================
(PID.TID 0000.0001) // End MONITOR dynamic field statistics
(PID.TID 0000.0001) // =======================================================
(PID.TID 0000.0001) // =======================================================
(PID.TID 0000.0001) // Begin OBCS MONITOR field statistics
(PID.TID 0000.0001) // =======================================================
(PID.TID 0000.0001) %MON obc_N_vVel_max               =   1.5167694576591E-05
(PID.TID 0000.0001) %MON obc_N_vVel_min               =   1.5167694576591E-05
(PID.TID 0000.0001) %MON obc_N_vVel_mean              =   1.5167694576591E-05
(PID.TID 0000.0001) %MON obc_N_vVel_sd                =   3.7774151964723E-12
(PID.TID 0000.0001) %MON obc_N_vVel_Int               =   1.0010678420550E+03
(PID.TID 0000.0001) // =======================================================
(PID.TID 0000.0001) // End OBCS MONITOR field statistics
(PID.TID 0000.0001) // =======================================================
 cg2d: Sum(rhs),rhsMax =   4.51343476679574E+00  2.99923283696476E+02
(PID.TID 0000.0001)      cg2d_init_res =   6.51369916920402E-06
(PID.TID 0000.0001)      cg2d_iters(min,last) =      -1      80
(PID.TID 0000.0001)      cg2d_last_res =   9.84963503085593E-12
(PID.TID 0000.0001) // =======================================================
(PID.TID 0000.0001) // Begin MONITOR dynamic field statistics
(PID.TID 0000.0001) // =======================================================
(PID.TID 0000.0001) %MON time_tsnumber                =                   904
(PID.TID 0000.0001) %MON time_secondsf                =   9.0400000000000E+04
(PID.TID 0000.0001) %MON dynstat_eta_max              =   5.7961162953206E+00
(PID.TID 0000.0001) %MON dynstat_eta_min              =  -1.4197112861396E+01
(PID.TID 0000.0001) %MON dynstat_eta_mean             =  -2.5068225481615E+00
(PID.TID 0000.0001) %MON dynstat_eta_sd               =   4.9508859720449E+00
(PID.TID 0000.0001) %MON dynstat_eta_del2             =   2.0714691746444E-01
(PID.TID 0000.0001) %MON dynstat_uvel_max             =   3.5446586594929E-03
(PID.TID 0000.0001) %MON dynstat_uvel_min             =  -1.5824399153232E-02
(PID.TID 0000.0001) %MON dynstat_uvel_mean            =  -1.1604678163321E-07
(PID.TID 0000.0001) %MON dynstat_uvel_sd              =   4.6838513997829E-04
(PID.TID 0000.0001) %MON dynstat_uvel_del2            =   7.2209414201887E-07
(PID.TID 0000.0001) %MON dynstat_vvel_max             =   1.2731058094372E-02
(PID.TID 0000.0001) %MON dynstat_vvel_min             =  -5.7123040526061E-03
(PID.TID 0000.0001) %MON dynstat_vvel_mean            =   1.5449587703976E-05
(PID.TID 0000.0001) %MON dynstat_vvel_sd              =   3.0635586803461E-04
(PID.TID 0000.0001) %MON dynstat_vvel_del2            =   6.2154791717823E-07
(PID.TID 0000.0001) %MON dynstat_wvel_max             =   6.0561650205675E-04
(PID.TID 0000.0001) %MON dynstat_wvel_min             =  -5.9863054087203E-04
(PID.TID 0000.0001) %MON dynstat_wvel_mean            =   7.1965983479699E-09
(PID.TID 0000.0001) %MON dynstat_wvel_sd              =   1.5718533050804E-05
(PID.TID 0000.0001) %MON dynstat_wvel_del2            =   6.0937351153271E-08
(PID.TID 0000.0001) %MON dynstat_theta_max            =   1.2000000000000E+00
(PID.TID 0000.0001) %MON dynstat_theta_min            =  -1.0000000000000E+00
(PID.TID 0000.0001) %MON dynstat_theta_mean           =   5.6884602576525E-01
(PID.TID 0000.0001) %MON dynstat_theta_sd             =   8.6844504961053E-01
(PID.TID 0000.0001) %MON dynstat_theta_del2           =   1.9625988854825E-06
(PID.TID 0000.0001) %MON dynstat_salt_max             =   3.4700000000000E+01
(PID.TID 0000.0001) %MON dynstat_salt_min             =   3.4000000000000E+01
(PID.TID 0000.0001) %MON dynstat_salt_mean            =   3.4499152586785E+01
(PID.TID 0000.0001) %MON dynstat_salt_sd              =   2.7631446761788E-01
(PID.TID 0000.0001) %MON dynstat_salt_del2            =   7.7061240739934E-07
(PID.TID 0000.0001) %MON advcfl_uvel_max              =   1.5824399153232E-03
(PID.TID 0000.0001) %MON advcfl_vvel_max              =   1.2731058094372E-03
(PID.TID 0000.0001) %MON advcfl_wvel_max              =   3.0280825102837E-03
(PID.TID 0000.0001) %MON advcfl_W_hf_max              =   3.0280825102837E-03
(PID.TID 0000.0001) %MON pe_b_mean                    =  -8.3071948345119E-01
(PID.TID 0000.0001) %MON ke_max                       =   7.8332113291925E-05
(PID.TID 0000.0001) %MON ke_mean                      =   1.5456043145180E-07
(PID.TID 0000.0001) %MON ke_vol                       =   4.2724895434076E+12
(PID.TID 0000.0001) // =======================================================
(PID.TID 0000.0001) // End MONITOR dynamic field statistics
(PID.TID 0000.0001) // =======================================================
(PID.TID 0000.0001) // =======================================================
(PID.TID 0000.0001) // Begin OBCS MONITOR field statistics
(PID.TID 0000.0001) // =======================================================
(PID.TID 0000.0001) %MON obc_N_vVel_max               =   1.5163483632164E-05
(PID.TID 0000.0001) %MON obc_N_vVel_min               =   1.5163483632164E-05
(PID.TID 0000.0001) %MON obc_N_vVel_mean              =   1.5163483632164E-05
(PID.TID 0000.0001) %MON obc_N_vVel_sd                =  -1.6543612251061E-23
(PID.TID 0000.0001) %MON obc_N_vVel_Int               =   1.0007899197228E+03
(PID.TID 0000.0001) // =======================================================
(PID.TID 0000.0001) // End OBCS MONITOR field statistics
(PID.TID 0000.0001) // =======================================================
 cg2d: Sum(rhs),rhsMax =   4.51345453276881E+00  2.99923364854822E+02
(PID.TID 0000.0001)      cg2d_init_res =   6.50848165333657E-06
(PID.TID 0000.0001)      cg2d_iters(min,last) =      -1      80
(PID.TID 0000.0001)      cg2d_last_res =   9.85695042543594E-12
(PID.TID 0000.0001) // =======================================================
(PID.TID 0000.0001) // Begin MONITOR dynamic field statistics
(PID.TID 0000.0001) // =======================================================
(PID.TID 0000.0001) %MON time_tsnumber                =                   905
(PID.TID 0000.0001) %MON time_secondsf                =   9.0500000000000E+04
(PID.TID 0000.0001) %MON dynstat_eta_max              =   5.7961100516505E+00
(PID.TID 0000.0001) %MON dynstat_eta_min              =  -1.4197136030831E+01
(PID.TID 0000.0001) %MON dynstat_eta_mean             =  -2.5068342047912E+00
(PID.TID 0000.0001) %MON dynstat_eta_sd               =   4.9508900021274E+00
(PID.TID 0000.0001) %MON dynstat_eta_del2             =   2.0714693934984E-01
(PID.TID 0000.0001) %MON dynstat_uvel_max             =   3.5542033721541E-03
(PID.TID 0000.0001) %MON dynstat_uvel_min             =  -1.5866161070168E-02
(PID.TID 0000.0001) %MON dynstat_uvel_mean            =  -1.1596337137294E-07
(PID.TID 0000.0001) %MON dynstat_uvel_sd              =   4.6961985819917E-04
(PID.TID 0000.0001) %MON dynstat_uvel_del2            =   7.2364735164225E-07
(PID.TID 0000.0001) %MON dynstat_vvel_max             =   1.2763165563188E-02
(PID.TID 0000.0001) %MON dynstat_vvel_min             =  -5.7231755516396E-03
(PID.TID 0000.0001) %MON dynstat_vvel_mean            =   1.5442621830549E-05
(PID.TID 0000.0001) %MON dynstat_vvel_sd              =   3.0690991804549E-04
(PID.TID 0000.0001) %MON dynstat_vvel_del2            =   6.2283308835880E-07
(PID.TID 0000.0001) %MON dynstat_wvel_max             =   6.0740928864740E-04
(PID.TID 0000.0001) %MON dynstat_wvel_min             =  -6.0030105925363E-04
(PID.TID 0000.0001) %MON dynstat_wvel_mean            =   7.1778104967574E-09
(PID.TID 0000.0001) %MON dynstat_wvel_sd              =   1.5652993294222E-05
(PID.TID 0000.0001) %MON dynstat_wvel_del2            =   6.1212632255911E-08
(PID.TID 0000.0001) %MON dynstat_theta_max            =   1.2000000000000E+00
(PID.TID 0000.0001) %MON dynstat_theta_min            =  -1.0000000000000E+00
(PID.TID 0000.0001) %MON dynstat_theta_mean           =   5.6884540818811E-01
(PID.TID 0000.0001) %MON dynstat_theta_sd             =   8.6844471219254E-01
(PID.TID 0000.0001) %MON dynstat_theta_del2           =   1.9664340638000E-06
(PID.TID 0000.0001) %MON dynstat_salt_max             =   3.4700000000000E+01
(PID.TID 0000.0001) %MON dynstat_salt_min             =   3.4000000000000E+01
(PID.TID 0000.0001) %MON dynstat_salt_mean            =   3.4499152339731E+01
(PID.TID 0000.0001) %MON dynstat_salt_sd              =   2.7631433845566E-01
(PID.TID 0000.0001) %MON dynstat_salt_del2            =   7.7215465817176E-07
(PID.TID 0000.0001) %MON advcfl_uvel_max              =   1.5866161070168E-03
(PID.TID 0000.0001) %MON advcfl_vvel_max              =   1.2763165563188E-03
(PID.TID 0000.0001) %MON advcfl_wvel_max              =   3.0370464432370E-03
(PID.TID 0000.0001) %MON advcfl_W_hf_max              =   3.0370464432370E-03
(PID.TID 0000.0001) %MON pe_b_mean                    =  -8.3072264597742E-01
(PID.TID 0000.0001) %MON ke_max                       =   7.8827218917058E-05
(PID.TID 0000.0001) %MON ke_mean                      =   1.5529781291443E-07
(PID.TID 0000.0001) %MON ke_vol                       =   4.2724894740639E+12
(PID.TID 0000.0001) // =======================================================
(PID.TID 0000.0001) // End MONITOR dynamic field statistics
(PID.TID 0000.0001) // =======================================================
(PID.TID 0000.0001) // =======================================================
(PID.TID 0000.0001) // Begin OBCS MONITOR field statistics
(PID.TID 0000.0001) // =======================================================
(PID.TID 0000.0001) %MON obc_N_vVel_max               =   1.5157772233470E-05
(PID.TID 0000.0001) %MON obc_N_vVel_min               =   1.5157772233470E-05
(PID.TID 0000.0001) %MON obc_N_vVel_mean              =   1.5157772233470E-05
(PID.TID 0000.0001) %MON obc_N_vVel_sd                =  -2.3005960786631E-23
(PID.TID 0000.0001) %MON obc_N_vVel_Int               =   1.0004129674090E+03
(PID.TID 0000.0001) // =======================================================
(PID.TID 0000.0001) // End OBCS MONITOR field statistics
(PID.TID 0000.0001) // =======================================================
 cg2d: Sum(rhs),rhsMax =   4.51347427213601E+00  2.99923445491382E+02
(PID.TID 0000.0001)      cg2d_init_res =   6.50299214485179E-06
(PID.TID 0000.0001)      cg2d_iters(min,last) =      -1      80
(PID.TID 0000.0001)      cg2d_last_res =   9.86384097897222E-12
(PID.TID 0000.0001) // =======================================================
(PID.TID 0000.0001) // Begin MONITOR dynamic field statistics
(PID.TID 0000.0001) // =======================================================
(PID.TID 0000.0001) %MON time_tsnumber                =                   906
(PID.TID 0000.0001) %MON time_secondsf                =   9.0600000000000E+04
(PID.TID 0000.0001) %MON dynstat_eta_max              =   5.7961038587525E+00
(PID.TID 0000.0001) %MON dynstat_eta_min              =  -1.4197159171988E+01
(PID.TID 0000.0001) %MON dynstat_eta_mean             =  -2.5068458422884E+00
(PID.TID 0000.0001) %MON dynstat_eta_sd               =   4.9508940250858E+00
(PID.TID 0000.0001) %MON dynstat_eta_del2             =   2.0714696128110E-01
(PID.TID 0000.0001) %MON dynstat_uvel_max             =   3.5637688428913E-03
(PID.TID 0000.0001) %MON dynstat_uvel_min             =  -1.5907995344769E-02
(PID.TID 0000.0001) %MON dynstat_uvel_mean            =  -1.1587540428787E-07
(PID.TID 0000.0001) %MON dynstat_uvel_sd              =   4.7085716432132E-04
(PID.TID 0000.0001) %MON dynstat_uvel_del2            =   7.2520466142972E-07
(PID.TID 0000.0001) %MON dynstat_vvel_max             =   1.2795326809535E-02
(PID.TID 0000.0001) %MON dynstat_vvel_min             =  -5.7340595004991E-03
(PID.TID 0000.0001) %MON dynstat_vvel_mean            =   1.5433931549249E-05
(PID.TID 0000.0001) %MON dynstat_vvel_sd              =   3.0747033527136E-04
(PID.TID 0000.0001) %MON dynstat_vvel_del2            =   6.2415192497636E-07
(PID.TID 0000.0001) %MON dynstat_wvel_max             =   6.0920604821637E-04
(PID.TID 0000.0001) %MON dynstat_wvel_min             =  -6.0197548362356E-04
(PID.TID 0000.0001) %MON dynstat_wvel_mean            =   7.1569375786404E-09
(PID.TID 0000.0001) %MON dynstat_wvel_sd              =   1.5596577109918E-05
(PID.TID 0000.0001) %MON dynstat_wvel_del2            =   6.1605256864139E-08
(PID.TID 0000.0001) %MON dynstat_theta_max            =   1.2000000000000E+00
(PID.TID 0000.0001) %MON dynstat_theta_min            =  -1.0000000000000E+00
(PID.TID 0000.0001) %MON dynstat_theta_mean           =   5.6884478928504E-01
(PID.TID 0000.0001) %MON dynstat_theta_sd             =   8.6844437406927E-01
(PID.TID 0000.0001) %MON dynstat_theta_del2           =   1.9702644446353E-06
(PID.TID 0000.0001) %MON dynstat_salt_max             =   3.4700000000000E+01
(PID.TID 0000.0001) %MON dynstat_salt_min             =   3.4000000000000E+01
(PID.TID 0000.0001) %MON dynstat_salt_mean            =   3.4499152092147E+01
(PID.TID 0000.0001) %MON dynstat_salt_sd              =   2.7631420901850E-01
(PID.TID 0000.0001) %MON dynstat_salt_del2            =   7.7369748506292E-07
(PID.TID 0000.0001) %MON advcfl_uvel_max              =   1.5907995344769E-03
(PID.TID 0000.0001) %MON advcfl_vvel_max              =   1.2795326809535E-03
(PID.TID 0000.0001) %MON advcfl_wvel_max              =   3.0460302410819E-03
(PID.TID 0000.0001) %MON advcfl_W_hf_max              =   3.0460302410819E-03
(PID.TID 0000.0001) %MON pe_b_mean                    =  -8.3072580228407E-01
(PID.TID 0000.0001) %MON ke_max                       =   7.9325147980629E-05
(PID.TID 0000.0001) %MON ke_mean                      =   1.5604012118889E-07
(PID.TID 0000.0001) %MON ke_vol                       =   4.2724894048235E+12
(PID.TID 0000.0001) // =======================================================
(PID.TID 0000.0001) // End MONITOR dynamic field statistics
(PID.TID 0000.0001) // =======================================================
(PID.TID 0000.0001) // =======================================================
(PID.TID 0000.0001) // Begin OBCS MONITOR field statistics
(PID.TID 0000.0001) // =======================================================
(PID.TID 0000.0001) %MON obc_N_vVel_max               =   1.5150503227650E-05
(PID.TID 0000.0001) %MON obc_N_vVel_min               =   1.5150503227650E-05
(PID.TID 0000.0001) %MON obc_N_vVel_mean              =   1.5150503227650E-05
(PID.TID 0000.0001) %MON obc_N_vVel_sd                =  -1.2847148888714E-23
(PID.TID 0000.0001) %MON obc_N_vVel_Int               =   9.9993321302492E+02
(PID.TID 0000.0001) // =======================================================
(PID.TID 0000.0001) // End OBCS MONITOR field statistics
(PID.TID 0000.0001) // =======================================================
 cg2d: Sum(rhs),rhsMax =   4.51349398221789E+00  2.99923525568570E+02
(PID.TID 0000.0001)      cg2d_init_res =   6.49701632417775E-06
(PID.TID 0000.0001)      cg2d_iters(min,last) =      -1      80
(PID.TID 0000.0001)      cg2d_last_res =   9.87027841097041E-12
(PID.TID 0000.0001) // =======================================================
(PID.TID 0000.0001) // Begin MONITOR dynamic field statistics
(PID.TID 0000.0001) // =======================================================
(PID.TID 0000.0001) %MON time_tsnumber                =                   907
(PID.TID 0000.0001) %MON time_secondsf                =   9.0700000000000E+04
(PID.TID 0000.0001) %MON dynstat_eta_max              =   5.7960977198482E+00
(PID.TID 0000.0001) %MON dynstat_eta_min              =  -1.4197182281842E+01
(PID.TID 0000.0001) %MON dynstat_eta_mean             =  -2.5068574588506E+00
(PID.TID 0000.0001) %MON dynstat_eta_sd               =   4.9508980402888E+00
(PID.TID 0000.0001) %MON dynstat_eta_del2             =   2.0714698325758E-01
(PID.TID 0000.0001) %MON dynstat_uvel_max             =   3.5733550958952E-03
(PID.TID 0000.0001) %MON dynstat_uvel_min             =  -1.5949901914958E-02
(PID.TID 0000.0001) %MON dynstat_uvel_mean            =  -1.1578433820934E-07
(PID.TID 0000.0001) %MON dynstat_uvel_sd              =   4.7209703033901E-04
(PID.TID 0000.0001) %MON dynstat_uvel_del2            =   7.2676608510893E-07
(PID.TID 0000.0001) %MON dynstat_vvel_max             =   1.2827541818928E-02
(PID.TID 0000.0001) %MON dynstat_vvel_min             =  -5.7449559202132E-03
(PID.TID 0000.0001) %MON dynstat_vvel_mean            =   1.5423471533662E-05
(PID.TID 0000.0001) %MON dynstat_vvel_sd              =   3.0803807571413E-04
(PID.TID 0000.0001) %MON dynstat_vvel_del2            =   6.2549374103091E-07
(PID.TID 0000.0001) %MON dynstat_wvel_max             =   6.1100678465752E-04
(PID.TID 0000.0001) %MON dynstat_wvel_min             =  -6.0365381630373E-04
(PID.TID 0000.0001) %MON dynstat_wvel_mean            =   7.1340459346772E-09
(PID.TID 0000.0001) %MON dynstat_wvel_sd              =   1.5547528154938E-05
(PID.TID 0000.0001) %MON dynstat_wvel_del2            =   6.2076690808752E-08
(PID.TID 0000.0001) %MON dynstat_theta_max            =   1.2000000000000E+00
(PID.TID 0000.0001) %MON dynstat_theta_min            =  -1.0000000000000E+00
(PID.TID 0000.0001) %MON dynstat_theta_mean           =   5.6884416904543E-01
(PID.TID 0000.0001) %MON dynstat_theta_sd             =   8.6844403524700E-01
(PID.TID 0000.0001) %MON dynstat_theta_del2           =   1.9740996337376E-06
(PID.TID 0000.0001) %MON dynstat_salt_max             =   3.4700000000000E+01
(PID.TID 0000.0001) %MON dynstat_salt_min             =   3.4000000000000E+01
(PID.TID 0000.0001) %MON dynstat_salt_mean            =   3.4499151844028E+01
(PID.TID 0000.0001) %MON dynstat_salt_sd              =   2.7631407930847E-01
(PID.TID 0000.0001) %MON dynstat_salt_del2            =   7.7524344340601E-07
(PID.TID 0000.0001) %MON advcfl_uvel_max              =   1.5949901914958E-03
(PID.TID 0000.0001) %MON advcfl_vvel_max              =   1.2827541818928E-03
(PID.TID 0000.0001) %MON advcfl_wvel_max              =   3.0550339232876E-03
(PID.TID 0000.0001) %MON advcfl_W_hf_max              =   3.0550339232876E-03
(PID.TID 0000.0001) %MON pe_b_mean                    =  -8.3072895190662E-01
(PID.TID 0000.0001) %MON ke_max                       =   7.9825913587362E-05
(PID.TID 0000.0001) %MON ke_mean                      =   1.5678765724579E-07
(PID.TID 0000.0001) %MON ke_vol                       =   4.2724893356968E+12
(PID.TID 0000.0001) // =======================================================
(PID.TID 0000.0001) // End MONITOR dynamic field statistics
(PID.TID 0000.0001) // =======================================================
(PID.TID 0000.0001) // =======================================================
(PID.TID 0000.0001) // Begin OBCS MONITOR field statistics
(PID.TID 0000.0001) // =======================================================
(PID.TID 0000.0001) %MON obc_N_vVel_max               =   1.5141627326196E-05
(PID.TID 0000.0001) %MON obc_N_vVel_min               =   1.5141627326196E-05
(PID.TID 0000.0001) %MON obc_N_vVel_mean              =   1.5141627326196E-05
(PID.TID 0000.0001) %MON obc_N_vVel_sd                =   2.0589562014123E-12
(PID.TID 0000.0001) %MON obc_N_vVel_Int               =   9.9934740352893E+02
(PID.TID 0000.0001) // =======================================================
(PID.TID 0000.0001) // End OBCS MONITOR field statistics
(PID.TID 0000.0001) // =======================================================
 cg2d: Sum(rhs),rhsMax =   4.51351366021469E+00  2.99923605051578E+02
(PID.TID 0000.0001)      cg2d_init_res =   6.49025718000825E-06
(PID.TID 0000.0001)      cg2d_iters(min,last) =      -1      80
(PID.TID 0000.0001)      cg2d_last_res =   9.87617497224626E-12
(PID.TID 0000.0001) // =======================================================
(PID.TID 0000.0001) // Begin MONITOR dynamic field statistics
(PID.TID 0000.0001) // =======================================================
(PID.TID 0000.0001) %MON time_tsnumber                =                   908
(PID.TID 0000.0001) %MON time_secondsf                =   9.0800000000000E+04
(PID.TID 0000.0001) %MON dynstat_eta_max              =   5.7960916382063E+00
(PID.TID 0000.0001) %MON dynstat_eta_min              =  -1.4197205357292E+01
(PID.TID 0000.0001) %MON dynstat_eta_mean             =  -2.5068690526317E+00
(PID.TID 0000.0001) %MON dynstat_eta_sd               =   4.9509020471014E+00
(PID.TID 0000.0001) %MON dynstat_eta_del2             =   2.0714700527874E-01
(PID.TID 0000.0001) %MON dynstat_uvel_max             =   3.5829621564574E-03
(PID.TID 0000.0001) %MON dynstat_uvel_min             =  -1.5991880716694E-02
(PID.TID 0000.0001) %MON dynstat_uvel_mean            =  -1.1569183596780E-07
(PID.TID 0000.0001) %MON dynstat_uvel_sd              =   4.7333943143416E-04
(PID.TID 0000.0001) %MON dynstat_uvel_del2            =   7.2833164200063E-07
(PID.TID 0000.0001) %MON dynstat_vvel_max             =   1.2859810575926E-02
(PID.TID 0000.0001) %MON dynstat_vvel_min             =  -5.7558648322766E-03
(PID.TID 0000.0001) %MON dynstat_vvel_mean            =   1.5411205828428E-05
(PID.TID 0000.0001) %MON dynstat_vvel_sd              =   3.0861399211015E-04
(PID.TID 0000.0001) %MON dynstat_vvel_del2            =   6.2684612406696E-07
(PID.TID 0000.0001) %MON dynstat_wvel_max             =   6.1281150181024E-04
(PID.TID 0000.0001) %MON dynstat_wvel_min             =  -6.0533605954765E-04
(PID.TID 0000.0001) %MON dynstat_wvel_mean            =   7.1092010845606E-09
(PID.TID 0000.0001) %MON dynstat_wvel_sd              =   1.5503514891333E-05
(PID.TID 0000.0001) %MON dynstat_wvel_del2            =   6.2582168548273E-08
(PID.TID 0000.0001) %MON dynstat_theta_max            =   1.2000000000000E+00
(PID.TID 0000.0001) %MON dynstat_theta_min            =  -1.0000000000000E+00
(PID.TID 0000.0001) %MON dynstat_theta_mean           =   5.6884354745891E-01
(PID.TID 0000.0001) %MON dynstat_theta_sd             =   8.6844369573696E-01
(PID.TID 0000.0001) %MON dynstat_theta_del2           =   1.9779502422777E-06
(PID.TID 0000.0001) %MON dynstat_salt_max             =   3.4700000000000E+01
(PID.TID 0000.0001) %MON dynstat_salt_min             =   3.4000000000000E+01
(PID.TID 0000.0001) %MON dynstat_salt_mean            =   3.4499151595372E+01
(PID.TID 0000.0001) %MON dynstat_salt_sd              =   2.7631394932904E-01
(PID.TID 0000.0001) %MON dynstat_salt_del2            =   7.7679532224957E-07
(PID.TID 0000.0001) %MON advcfl_uvel_max              =   1.5991880716694E-03
(PID.TID 0000.0001) %MON advcfl_vvel_max              =   1.2859810575926E-03
(PID.TID 0000.0001) %MON advcfl_wvel_max              =   3.0640575090512E-03
(PID.TID 0000.0001) %MON advcfl_W_hf_max              =   3.0640575090512E-03
(PID.TID 0000.0001) %MON pe_b_mean                    =  -8.3073209437280E-01
(PID.TID 0000.0001) %MON ke_max                       =   8.0329528867041E-05
(PID.TID 0000.0001) %MON ke_mean                      =   1.5754069402451E-07
(PID.TID 0000.0001) %MON ke_vol                       =   4.2724892666944E+12
(PID.TID 0000.0001) // =======================================================
(PID.TID 0000.0001) // End MONITOR dynamic field statistics
(PID.TID 0000.0001) // =======================================================
(PID.TID 0000.0001) // =======================================================
(PID.TID 0000.0001) // Begin OBCS MONITOR field statistics
(PID.TID 0000.0001) // =======================================================
(PID.TID 0000.0001) %MON obc_N_vVel_max               =   1.5131104853146E-05
(PID.TID 0000.0001) %MON obc_N_vVel_min               =   1.5131104853146E-05
(PID.TID 0000.0001) %MON obc_N_vVel_mean              =   1.5131104853146E-05
(PID.TID 0000.0001) %MON obc_N_vVel_sd                =   3.3455623837568E-12
(PID.TID 0000.0001) %MON obc_N_vVel_Int               =   9.9865292030763E+02
(PID.TID 0000.0001) // =======================================================
(PID.TID 0000.0001) // End OBCS MONITOR field statistics
(PID.TID 0000.0001) // =======================================================
 cg2d: Sum(rhs),rhsMax =   4.51353330325114E+00  2.99923683906754E+02
(PID.TID 0000.0001)      cg2d_init_res =   6.48237594212768E-06
(PID.TID 0000.0001)      cg2d_iters(min,last) =      -1      80
(PID.TID 0000.0001)      cg2d_last_res =   9.88154909470649E-12
(PID.TID 0000.0001) // =======================================================
(PID.TID 0000.0001) // Begin MONITOR dynamic field statistics
(PID.TID 0000.0001) // =======================================================
(PID.TID 0000.0001) %MON time_tsnumber                =                   909
(PID.TID 0000.0001) %MON time_secondsf                =   9.0900000000000E+04
(PID.TID 0000.0001) %MON dynstat_eta_max              =   5.7960856171382E+00
(PID.TID 0000.0001) %MON dynstat_eta_min              =  -1.4197228395178E+01
(PID.TID 0000.0001) %MON dynstat_eta_mean             =  -2.5068806217535E+00
(PID.TID 0000.0001) %MON dynstat_eta_sd               =   4.9509060448893E+00
(PID.TID 0000.0001) %MON dynstat_eta_del2             =   2.0714702734412E-01
(PID.TID 0000.0001) %MON dynstat_uvel_max             =   3.5925900508218E-03
(PID.TID 0000.0001) %MON dynstat_uvel_min             =  -1.6033931683619E-02
(PID.TID 0000.0001) %MON dynstat_uvel_mean            =  -1.1559958165224E-07
(PID.TID 0000.0001) %MON dynstat_uvel_sd              =   4.7458434622354E-04
(PID.TID 0000.0001) %MON dynstat_uvel_del2            =   7.2990135576323E-07
(PID.TID 0000.0001) %MON dynstat_vvel_max             =   1.2892133064562E-02
(PID.TID 0000.0001) %MON dynstat_vvel_min             =  -5.7667862581452E-03
(PID.TID 0000.0001) %MON dynstat_vvel_mean            =   1.5397108677607E-05
(PID.TID 0000.0001) %MON dynstat_vvel_sd              =   3.0919886919827E-04
(PID.TID 0000.0001) %MON dynstat_vvel_del2            =   6.2819618049275E-07
(PID.TID 0000.0001) %MON dynstat_wvel_max             =   6.1462020342460E-04
(PID.TID 0000.0001) %MON dynstat_wvel_min             =  -6.0702221558241E-04
(PID.TID 0000.0001) %MON dynstat_wvel_mean            =   7.0824619775882E-09
(PID.TID 0000.0001) %MON dynstat_wvel_sd              =   1.5462014829447E-05
(PID.TID 0000.0001) %MON dynstat_wvel_del2            =   6.3075765132900E-08
(PID.TID 0000.0001) %MON dynstat_theta_max            =   1.2000000000000E+00
(PID.TID 0000.0001) %MON dynstat_theta_min            =  -1.0000000000000E+00
(PID.TID 0000.0001) %MON dynstat_theta_mean           =   5.6884292451548E-01
(PID.TID 0000.0001) %MON dynstat_theta_sd             =   8.6844335555193E-01
(PID.TID 0000.0001) %MON dynstat_theta_del2           =   1.9818266986212E-06
(PID.TID 0000.0001) %MON dynstat_salt_max             =   3.4700000000000E+01
(PID.TID 0000.0001) %MON dynstat_salt_min             =   3.4000000000000E+01
(PID.TID 0000.0001) %MON dynstat_salt_mean            =   3.4499151346175E+01
(PID.TID 0000.0001) %MON dynstat_salt_sd              =   2.7631381908432E-01
(PID.TID 0000.0001) %MON dynstat_salt_del2            =   7.7835587779717E-07
(PID.TID 0000.0001) %MON advcfl_uvel_max              =   1.6033931683619E-03
(PID.TID 0000.0001) %MON advcfl_vvel_max              =   1.2892133064562E-03
(PID.TID 0000.0001) %MON advcfl_wvel_max              =   3.0731010171230E-03
(PID.TID 0000.0001) %MON advcfl_W_hf_max              =   3.0731010171230E-03
(PID.TID 0000.0001) %MON pe_b_mean                    =  -8.3073522920481E-01
(PID.TID 0000.0001) %MON ke_max                       =   8.0836006971117E-05
(PID.TID 0000.0001) %MON ke_mean                      =   1.5829948725582E-07
(PID.TID 0000.0001) %MON ke_vol                       =   4.2724891978274E+12
(PID.TID 0000.0001) // =======================================================
(PID.TID 0000.0001) // End MONITOR dynamic field statistics
(PID.TID 0000.0001) // =======================================================
(PID.TID 0000.0001) // =======================================================
(PID.TID 0000.0001) // Begin OBCS MONITOR field statistics
(PID.TID 0000.0001) // =======================================================
(PID.TID 0000.0001) %MON obc_N_vVel_max               =   1.5118906996603E-05
(PID.TID 0000.0001) %MON obc_N_vVel_min               =   1.5118906996603E-05
(PID.TID 0000.0001) %MON obc_N_vVel_mean              =   1.5118906996603E-05
(PID.TID 0000.0001) %MON obc_N_vVel_sd                =   3.4143925899301E-12
(PID.TID 0000.0001) %MON obc_N_vVel_Int               =   9.9784786177580E+02
(PID.TID 0000.0001) // =======================================================
(PID.TID 0000.0001) // End OBCS MONITOR field statistics
(PID.TID 0000.0001) // =======================================================
 cg2d: Sum(rhs),rhsMax =   4.51355290839795E+00  2.99923762101553E+02
(PID.TID 0000.0001)      cg2d_init_res =   6.47303210972545E-06
(PID.TID 0000.0001)      cg2d_iters(min,last) =      -1      80
(PID.TID 0000.0001)      cg2d_last_res =   9.88630202524570E-12
(PID.TID 0000.0001) // =======================================================
(PID.TID 0000.0001) // Begin MONITOR dynamic field statistics
(PID.TID 0000.0001) // =======================================================
(PID.TID 0000.0001) %MON time_tsnumber                =                   910
(PID.TID 0000.0001) %MON time_secondsf                =   9.1000000000000E+04
(PID.TID 0000.0001) %MON dynstat_eta_max              =   5.7960796599764E+00
(PID.TID 0000.0001) %MON dynstat_eta_min              =  -1.4197251392295E+01
(PID.TID 0000.0001) %MON dynstat_eta_mean             =  -2.5068921643169E+00
(PID.TID 0000.0001) %MON dynstat_eta_sd               =   4.9509100330244E+00
(PID.TID 0000.0001) %MON dynstat_eta_del2             =   2.0714704945325E-01
(PID.TID 0000.0001) %MON dynstat_uvel_max             =   3.6022388059962E-03
(PID.TID 0000.0001) %MON dynstat_uvel_min             =  -1.6076054747554E-02
(PID.TID 0000.0001) %MON dynstat_uvel_mean            =  -1.1550911997692E-07
(PID.TID 0000.0001) %MON dynstat_uvel_sd              =   4.7583175696934E-04
(PID.TID 0000.0001) %MON dynstat_uvel_del2            =   7.3147525360971E-07
(PID.TID 0000.0001) %MON dynstat_vvel_max             =   1.2924509268728E-02
(PID.TID 0000.0001) %MON dynstat_vvel_min             =  -5.7777202190916E-03
(PID.TID 0000.0001) %MON dynstat_vvel_mean            =   1.5381165070350E-05
(PID.TID 0000.0001) %MON dynstat_vvel_sd              =   3.0979346014576E-04
(PID.TID 0000.0001) %MON dynstat_vvel_del2            =   6.2953179775064E-07
(PID.TID 0000.0001) %MON dynstat_wvel_max             =   6.1643289319418E-04
(PID.TID 0000.0001) %MON dynstat_wvel_min             =  -6.0871228661159E-04
(PID.TID 0000.0001) %MON dynstat_wvel_mean            =   7.0538828206759E-09
(PID.TID 0000.0001) %MON dynstat_wvel_sd              =   1.5420714099659E-05
(PID.TID 0000.0001) %MON dynstat_wvel_del2            =   6.3515115837765E-08
(PID.TID 0000.0001) %MON dynstat_theta_max            =   1.2000000000000E+00
(PID.TID 0000.0001) %MON dynstat_theta_min            =  -1.0000000000000E+00
(PID.TID 0000.0001) %MON dynstat_theta_mean           =   5.6884230020556E-01
(PID.TID 0000.0001) %MON dynstat_theta_sd             =   8.6844301469906E-01
(PID.TID 0000.0001) %MON dynstat_theta_del2           =   1.9857380316548E-06
(PID.TID 0000.0001) %MON dynstat_salt_max             =   3.4700000000000E+01
(PID.TID 0000.0001) %MON dynstat_salt_min             =   3.4000000000000E+01
(PID.TID 0000.0001) %MON dynstat_salt_mean            =   3.4499151096433E+01
(PID.TID 0000.0001) %MON dynstat_salt_sd              =   2.7631368857622E-01
(PID.TID 0000.0001) %MON dynstat_salt_del2            =   7.7992748838617E-07
(PID.TID 0000.0001) %MON advcfl_uvel_max              =   1.6076054747554E-03
(PID.TID 0000.0001) %MON advcfl_vvel_max              =   1.2924509268728E-03
(PID.TID 0000.0001) %MON advcfl_wvel_max              =   3.0821644659709E-03
(PID.TID 0000.0001) %MON advcfl_W_hf_max              =   3.0821644659709E-03
(PID.TID 0000.0001) %MON pe_b_mean                    =  -8.3073835592193E-01
(PID.TID 0000.0001) %MON ke_max                       =   8.1345361075733E-05
(PID.TID 0000.0001) %MON ke_mean                      =   1.5906428674353E-07
(PID.TID 0000.0001) %MON ke_vol                       =   4.2724891291068E+12
(PID.TID 0000.0001) // =======================================================
(PID.TID 0000.0001) // End MONITOR dynamic field statistics
(PID.TID 0000.0001) // =======================================================
(PID.TID 0000.0001) // =======================================================
(PID.TID 0000.0001) // Begin OBCS MONITOR field statistics
(PID.TID 0000.0001) // =======================================================
(PID.TID 0000.0001) %MON obc_N_vVel_max               =   1.5105016228207E-05
(PID.TID 0000.0001) %MON obc_N_vVel_min               =   1.5105016228207E-05
(PID.TID 0000.0001) %MON obc_N_vVel_mean              =   1.5105016228207E-05
(PID.TID 0000.0001) %MON obc_N_vVel_sd                =  -1.2924697071141E-23
(PID.TID 0000.0001) %MON obc_N_vVel_Int               =   9.9693107106166E+02
(PID.TID 0000.0001) // =======================================================
(PID.TID 0000.0001) // End OBCS MONITOR field statistics
(PID.TID 0000.0001) // =======================================================
 cg2d: Sum(rhs),rhsMax =   4.51357247269998E+00  2.99923839604271E+02
(PID.TID 0000.0001)      cg2d_init_res =   6.46191494352255E-06
(PID.TID 0000.0001)      cg2d_iters(min,last) =      -1      80
(PID.TID 0000.0001)      cg2d_last_res =   9.89029793646318E-12
(PID.TID 0000.0001) // =======================================================
(PID.TID 0000.0001) // Begin MONITOR dynamic field statistics
(PID.TID 0000.0001) // =======================================================
(PID.TID 0000.0001) %MON time_tsnumber                =                   911
(PID.TID 0000.0001) %MON time_secondsf                =   9.1100000000000E+04
(PID.TID 0000.0001) %MON dynstat_eta_max              =   5.7960737700699E+00
(PID.TID 0000.0001) %MON dynstat_eta_min              =  -1.4197274345412E+01
(PID.TID 0000.0001) %MON dynstat_eta_mean             =  -2.5069036784154E+00
(PID.TID 0000.0001) %MON dynstat_eta_sd               =   4.9509140108829E+00
(PID.TID 0000.0001) %MON dynstat_eta_del2             =   2.0714707160552E-01
(PID.TID 0000.0001) %MON dynstat_uvel_max             =   3.6119084491837E-03
(PID.TID 0000.0001) %MON dynstat_uvel_min             =  -1.6118249839039E-02
(PID.TID 0000.0001) %MON dynstat_uvel_mean            =  -1.1542176119349E-07
(PID.TID 0000.0001) %MON dynstat_uvel_sd              =   4.7708164976694E-04
(PID.TID 0000.0001) %MON dynstat_uvel_del2            =   7.3305336551875E-07
(PID.TID 0000.0001) %MON dynstat_vvel_max             =   1.2956939172613E-02
(PID.TID 0000.0001) %MON dynstat_vvel_min             =  -5.7886667355884E-03
(PID.TID 0000.0001) %MON dynstat_vvel_mean            =   1.5363371072710E-05
(PID.TID 0000.0001) %MON dynstat_vvel_sd              =   3.1039851845968E-04
(PID.TID 0000.0001) %MON dynstat_vvel_del2            =   6.3084279572358E-07
(PID.TID 0000.0001) %MON dynstat_wvel_max             =   6.1824957474901E-04
(PID.TID 0000.0001) %MON dynstat_wvel_min             =  -6.1040627491654E-04
(PID.TID 0000.0001) %MON dynstat_wvel_mean            =   7.0235142106698E-09
(PID.TID 0000.0001) %MON dynstat_wvel_sd              =   1.5377878315230E-05
(PID.TID 0000.0001) %MON dynstat_wvel_del2            =   6.3865346876846E-08
(PID.TID 0000.0001) %MON dynstat_theta_max            =   1.2000000000000E+00
(PID.TID 0000.0001) %MON dynstat_theta_min            =  -1.0000000000000E+00
(PID.TID 0000.0001) %MON dynstat_theta_mean           =   5.6884167452022E-01
(PID.TID 0000.0001) %MON dynstat_theta_sd             =   8.6844267318249E-01
(PID.TID 0000.0001) %MON dynstat_theta_del2           =   1.9896909858776E-06
(PID.TID 0000.0001) %MON dynstat_salt_max             =   3.4700000000000E+01
(PID.TID 0000.0001) %MON dynstat_salt_min             =   3.4000000000000E+01
(PID.TID 0000.0001) %MON dynstat_salt_mean            =   3.4499150846144E+01
(PID.TID 0000.0001) %MON dynstat_salt_sd              =   2.7631355780631E-01
(PID.TID 0000.0001) %MON dynstat_salt_del2            =   7.8151196057788E-07
(PID.TID 0000.0001) %MON advcfl_uvel_max              =   1.6118249839039E-03
(PID.TID 0000.0001) %MON advcfl_vvel_max              =   1.2956939172613E-03
(PID.TID 0000.0001) %MON advcfl_wvel_max              =   3.0912478737451E-03
(PID.TID 0000.0001) %MON advcfl_W_hf_max              =   3.0912478737451E-03
(PID.TID 0000.0001) %MON pe_b_mean                    =  -8.3074147404293E-01
(PID.TID 0000.0001) %MON ke_max                       =   8.1857604389396E-05
(PID.TID 0000.0001) %MON ke_mean                      =   1.5983534636131E-07
(PID.TID 0000.0001) %MON ke_vol                       =   4.2724890605440E+12
(PID.TID 0000.0001) // =======================================================
(PID.TID 0000.0001) // End MONITOR dynamic field statistics
(PID.TID 0000.0001) // =======================================================
(PID.TID 0000.0001) // =======================================================
(PID.TID 0000.0001) // Begin OBCS MONITOR field statistics
(PID.TID 0000.0001) // =======================================================
(PID.TID 0000.0001) %MON obc_N_vVel_max               =   1.5089426418446E-05
(PID.TID 0000.0001) %MON obc_N_vVel_min               =   1.5089426418445E-05
(PID.TID 0000.0001) %MON obc_N_vVel_mean              =   1.5089426418445E-05
(PID.TID 0000.0001) %MON obc_N_vVel_sd                =   3.8653524825349E-12
(PID.TID 0000.0001) %MON obc_N_vVel_Int               =   9.9590214361738E+02
(PID.TID 0000.0001) // =======================================================
(PID.TID 0000.0001) // End OBCS MONITOR field statistics
(PID.TID 0000.0001) // =======================================================
 cg2d: Sum(rhs),rhsMax =   4.51359199312863E+00  2.99923916388841E+02
(PID.TID 0000.0001)      cg2d_init_res =   6.44878396864839E-06
(PID.TID 0000.0001)      cg2d_iters(min,last) =      -1      80
(PID.TID 0000.0001)      cg2d_last_res =   9.89362313225452E-12
(PID.TID 0000.0001) // =======================================================
(PID.TID 0000.0001) // Begin MONITOR dynamic field statistics
(PID.TID 0000.0001) // =======================================================
(PID.TID 0000.0001) %MON time_tsnumber                =                   912
(PID.TID 0000.0001) %MON time_secondsf                =   9.1200000000000E+04
(PID.TID 0000.0001) %MON dynstat_eta_max              =   5.7960679507584E+00
(PID.TID 0000.0001) %MON dynstat_eta_min              =  -1.4197297251294E+01
(PID.TID 0000.0001) %MON dynstat_eta_mean             =  -2.5069151621490E+00
(PID.TID 0000.0001) %MON dynstat_eta_sd               =   4.9509179778514E+00
(PID.TID 0000.0001) %MON dynstat_eta_del2             =   2.0714709380039E-01
(PID.TID 0000.0001) %MON dynstat_uvel_max             =   3.6215990071788E-03
(PID.TID 0000.0001) %MON dynstat_uvel_min             =  -1.6160516888114E-02
(PID.TID 0000.0001) %MON dynstat_uvel_mean            =  -1.1533853371371E-07
(PID.TID 0000.0001) %MON dynstat_uvel_sd              =   4.7833401465779E-04
(PID.TID 0000.0001) %MON dynstat_uvel_del2            =   7.3463572288057E-07
(PID.TID 0000.0001) %MON dynstat_vvel_max             =   1.2989422761123E-02
(PID.TID 0000.0001) %MON dynstat_vvel_min             =  -5.7996258269695E-03
(PID.TID 0000.0001) %MON dynstat_vvel_mean            =   1.5343734036877E-05
(PID.TID 0000.0001) %MON dynstat_vvel_sd              =   3.1101482034288E-04
(PID.TID 0000.0001) %MON dynstat_vvel_del2            =   6.3212185604725E-07
(PID.TID 0000.0001) %MON dynstat_wvel_max             =   6.2007025167695E-04
(PID.TID 0000.0001) %MON dynstat_wvel_min             =  -6.1210418271718E-04
(PID.TID 0000.0001) %MON dynstat_wvel_mean            =   6.9914126703653E-09
(PID.TID 0000.0001) %MON dynstat_wvel_sd              =   1.5332656405078E-05
(PID.TID 0000.0001) %MON dynstat_wvel_del2            =   6.4101989246544E-08
(PID.TID 0000.0001) %MON dynstat_theta_max            =   1.2000000000000E+00
(PID.TID 0000.0001) %MON dynstat_theta_min            =  -1.0000000000000E+00
(PID.TID 0000.0001) %MON dynstat_theta_mean           =   5.6884104745148E-01
(PID.TID 0000.0001) %MON dynstat_theta_sd             =   8.6844233100616E-01
(PID.TID 0000.0001) %MON dynstat_theta_del2           =   1.9936891721107E-06
(PID.TID 0000.0001) %MON dynstat_salt_max             =   3.4700000000000E+01
(PID.TID 0000.0001) %MON dynstat_salt_min             =   3.4000000000000E+01
(PID.TID 0000.0001) %MON dynstat_salt_mean            =   3.4499150595304E+01
(PID.TID 0000.0001) %MON dynstat_salt_sd              =   2.7631342677554E-01
(PID.TID 0000.0001) %MON dynstat_salt_del2            =   7.8311028245642E-07
(PID.TID 0000.0001) %MON advcfl_uvel_max              =   1.6160516888114E-03
(PID.TID 0000.0001) %MON advcfl_vvel_max              =   1.2989422761123E-03
(PID.TID 0000.0001) %MON advcfl_wvel_max              =   3.1003512583847E-03
(PID.TID 0000.0001) %MON advcfl_W_hf_max              =   3.1003512583847E-03
(PID.TID 0000.0001) %MON pe_b_mean                    =  -8.3074458308945E-01
(PID.TID 0000.0001) %MON ke_max                       =   8.2372750160707E-05
(PID.TID 0000.0001) %MON ke_mean                      =   1.6061293116092E-07
(PID.TID 0000.0001) %MON ke_vol                       =   4.2724889921502E+12
(PID.TID 0000.0001) // =======================================================
(PID.TID 0000.0001) // End MONITOR dynamic field statistics
(PID.TID 0000.0001) // =======================================================
(PID.TID 0000.0001) // =======================================================
(PID.TID 0000.0001) // Begin OBCS MONITOR field statistics
(PID.TID 0000.0001) // =======================================================
(PID.TID 0000.0001) %MON obc_N_vVel_max               =   1.5072142278942E-05
(PID.TID 0000.0001) %MON obc_N_vVel_min               =   1.5072142278942E-05
(PID.TID 0000.0001) %MON obc_N_vVel_mean              =   1.5072142278942E-05
(PID.TID 0000.0001) %MON obc_N_vVel_sd                =   4.8099072503888E-12
(PID.TID 0000.0001) %MON obc_N_vVel_Int               =   9.9476139041016E+02
(PID.TID 0000.0001) // =======================================================
(PID.TID 0000.0001) // End OBCS MONITOR field statistics
(PID.TID 0000.0001) // =======================================================
 cg2d: Sum(rhs),rhsMax =   4.51361146666827E+00  2.99923992430277E+02
(PID.TID 0000.0001)      cg2d_init_res =   6.43348160412958E-06
(PID.TID 0000.0001)      cg2d_iters(min,last) =      -1      80
(PID.TID 0000.0001)      cg2d_last_res =   9.89622870282488E-12
(PID.TID 0000.0001) // =======================================================
(PID.TID 0000.0001) // Begin MONITOR dynamic field statistics
(PID.TID 0000.0001) // =======================================================
(PID.TID 0000.0001) %MON time_tsnumber                =                   913
(PID.TID 0000.0001) %MON time_secondsf                =   9.1300000000000E+04
(PID.TID 0000.0001) %MON dynstat_eta_max              =   5.7960622053601E+00
(PID.TID 0000.0001) %MON dynstat_eta_min              =  -1.4197320106724E+01
(PID.TID 0000.0001) %MON dynstat_eta_mean             =  -2.5069266136337E+00
(PID.TID 0000.0001) %MON dynstat_eta_sd               =   4.9509219333331E+00
(PID.TID 0000.0001) %MON dynstat_eta_del2             =   2.0714711603743E-01
(PID.TID 0000.0001) %MON dynstat_uvel_max             =   3.6313105058774E-03
(PID.TID 0000.0001) %MON dynstat_uvel_min             =  -1.6202855825195E-02
(PID.TID 0000.0001) %MON dynstat_uvel_mean            =  -1.1526017760404E-07
(PID.TID 0000.0001) %MON dynstat_uvel_sd              =   4.7958884574125E-04
(PID.TID 0000.0001) %MON dynstat_uvel_del2            =   7.3622235803781E-07
(PID.TID 0000.0001) %MON dynstat_vvel_max             =   1.3021960020341E-02
(PID.TID 0000.0001) %MON dynstat_vvel_min             =  -5.8105975109335E-03
(PID.TID 0000.0001) %MON dynstat_vvel_mean            =   1.5322272800945E-05
(PID.TID 0000.0001) %MON dynstat_vvel_sd              =   3.1164317359156E-04
(PID.TID 0000.0001) %MON dynstat_vvel_del2            =   6.3336514408197E-07
(PID.TID 0000.0001) %MON dynstat_wvel_max             =   6.2189492753855E-04
(PID.TID 0000.0001) %MON dynstat_wvel_min             =  -6.1380601243624E-04
(PID.TID 0000.0001) %MON dynstat_wvel_mean            =   6.9576449792425E-09
(PID.TID 0000.0001) %MON dynstat_wvel_sd              =   1.5285287707119E-05
(PID.TID 0000.0001) %MON dynstat_wvel_del2            =   6.4212800808176E-08
(PID.TID 0000.0001) %MON dynstat_theta_max            =   1.2000000000000E+00
(PID.TID 0000.0001) %MON dynstat_theta_min            =  -1.0000000000000E+00
(PID.TID 0000.0001) %MON dynstat_theta_mean           =   5.6884041899225E-01
(PID.TID 0000.0001) %MON dynstat_theta_sd             =   8.6844198817102E-01
(PID.TID 0000.0001) %MON dynstat_theta_del2           =   1.9977326613238E-06
(PID.TID 0000.0001) %MON dynstat_salt_max             =   3.4700000000000E+01
(PID.TID 0000.0001) %MON dynstat_salt_min             =   3.4000000000000E+01
(PID.TID 0000.0001) %MON dynstat_salt_mean            =   3.4499150343912E+01
(PID.TID 0000.0001) %MON dynstat_salt_sd              =   2.7631329548415E-01
(PID.TID 0000.0001) %MON dynstat_salt_del2            =   7.8472252407428E-07
(PID.TID 0000.0001) %MON advcfl_uvel_max              =   1.6202855825195E-03
(PID.TID 0000.0001) %MON advcfl_vvel_max              =   1.3021960020341E-03
(PID.TID 0000.0001) %MON advcfl_wvel_max              =   3.1094746376928E-03
(PID.TID 0000.0001) %MON advcfl_W_hf_max              =   3.1094746376928E-03
(PID.TID 0000.0001) %MON pe_b_mean                    =  -8.3074768258880E-01
(PID.TID 0000.0001) %MON ke_max                       =   8.2890811686968E-05
(PID.TID 0000.0001) %MON ke_mean                      =   1.6139732037570E-07
(PID.TID 0000.0001) %MON ke_vol                       =   4.2724889239368E+12
(PID.TID 0000.0001) // =======================================================
(PID.TID 0000.0001) // End MONITOR dynamic field statistics
(PID.TID 0000.0001) // =======================================================
(PID.TID 0000.0001) // =======================================================
(PID.TID 0000.0001) // Begin OBCS MONITOR field statistics
(PID.TID 0000.0001) // =======================================================
(PID.TID 0000.0001) %MON obc_N_vVel_max               =   1.5053179130035E-05
(PID.TID 0000.0001) %MON obc_N_vVel_min               =   1.5053179130035E-05
(PID.TID 0000.0001) %MON obc_N_vVel_mean              =   1.5053179130035E-05
(PID.TID 0000.0001) %MON obc_N_vVel_sd                =  -2.0369322584118E-23
(PID.TID 0000.0001) %MON obc_N_vVel_Int               =   9.9350982258231E+02
(PID.TID 0000.0001) // =======================================================
(PID.TID 0000.0001) // End OBCS MONITOR field statistics
(PID.TID 0000.0001) // =======================================================
 cg2d: Sum(rhs),rhsMax =   4.51363089035049E+00  2.99924067703931E+02
(PID.TID 0000.0001)      cg2d_init_res =   6.41600667492332E-06
(PID.TID 0000.0001)      cg2d_iters(min,last) =      -1      80
(PID.TID 0000.0001)      cg2d_last_res =   9.89818040195920E-12
(PID.TID 0000.0001) // =======================================================
(PID.TID 0000.0001) // Begin MONITOR dynamic field statistics
(PID.TID 0000.0001) // =======================================================
(PID.TID 0000.0001) %MON time_tsnumber                =                   914
(PID.TID 0000.0001) %MON time_secondsf                =   9.1400000000000E+04
(PID.TID 0000.0001) %MON dynstat_eta_max              =   5.7960565371486E+00
(PID.TID 0000.0001) %MON dynstat_eta_min              =  -1.4197342908519E+01
(PID.TID 0000.0001) %MON dynstat_eta_mean             =  -2.5069380310149E+00
(PID.TID 0000.0001) %MON dynstat_eta_sd               =   4.9509258767497E+00
(PID.TID 0000.0001) %MON dynstat_eta_del2             =   2.0714713831625E-01
(PID.TID 0000.0001) %MON dynstat_uvel_max             =   3.6410429701235E-03
(PID.TID 0000.0001) %MON dynstat_uvel_min             =  -1.6245266580853E-02
(PID.TID 0000.0001) %MON dynstat_uvel_mean            =  -1.1518718188392E-07
(PID.TID 0000.0001) %MON dynstat_uvel_sd              =   4.8084614126868E-04
(PID.TID 0000.0001) %MON dynstat_uvel_del2            =   7.3781330402125E-07
(PID.TID 0000.0001) %MON dynstat_vvel_max             =   1.3054550937850E-02
(PID.TID 0000.0001) %MON dynstat_vvel_min             =  -5.8215818035290E-03
(PID.TID 0000.0001) %MON dynstat_vvel_mean            =   1.5299017893042E-05
(PID.TID 0000.0001) %MON dynstat_vvel_sd              =   3.1228441063966E-04
(PID.TID 0000.0001) %MON dynstat_vvel_del2            =   6.3457256891760E-07
(PID.TID 0000.0001) %MON dynstat_wvel_max             =   6.2372360585352E-04
(PID.TID 0000.0001) %MON dynstat_wvel_min             =  -6.1551176658916E-04
(PID.TID 0000.0001) %MON dynstat_wvel_mean            =   6.9222962688034E-09
(PID.TID 0000.0001) %MON dynstat_wvel_sd              =   1.5237191940375E-05
(PID.TID 0000.0001) %MON dynstat_wvel_del2            =   6.4198502204305E-08
(PID.TID 0000.0001) %MON dynstat_theta_max            =   1.2000000000000E+00
(PID.TID 0000.0001) %MON dynstat_theta_min            =  -1.0000000000000E+00
(PID.TID 0000.0001) %MON dynstat_theta_mean           =   5.6883978913655E-01
(PID.TID 0000.0001) %MON dynstat_theta_sd             =   8.6844164467398E-01
(PID.TID 0000.0001) %MON dynstat_theta_del2           =   2.0018197157229E-06
(PID.TID 0000.0001) %MON dynstat_salt_max             =   3.4700000000000E+01
(PID.TID 0000.0001) %MON dynstat_salt_min             =   3.4000000000000E+01
(PID.TID 0000.0001) %MON dynstat_salt_mean            =   3.4499150091966E+01
(PID.TID 0000.0001) %MON dynstat_salt_sd              =   2.7631316393106E-01
(PID.TID 0000.0001) %MON dynstat_salt_del2            =   7.8634784668202E-07
(PID.TID 0000.0001) %MON advcfl_uvel_max              =   1.6245266580853E-03
(PID.TID 0000.0001) %MON advcfl_vvel_max              =   1.3054550937850E-03
(PID.TID 0000.0001) %MON advcfl_wvel_max              =   3.1186180292676E-03
(PID.TID 0000.0001) %MON advcfl_W_hf_max              =   3.1186180292676E-03
(PID.TID 0000.0001) %MON pe_b_mean                    =  -8.3075077207715E-01
(PID.TID 0000.0001) %MON ke_max                       =   8.3411802314022E-05
(PID.TID 0000.0001) %MON ke_mean                      =   1.6218880551069E-07
(PID.TID 0000.0001) %MON ke_vol                       =   4.2724888559150E+12
(PID.TID 0000.0001) // =======================================================
(PID.TID 0000.0001) // End MONITOR dynamic field statistics
(PID.TID 0000.0001) // =======================================================
(PID.TID 0000.0001) // =======================================================
(PID.TID 0000.0001) // Begin OBCS MONITOR field statistics
(PID.TID 0000.0001) // =======================================================
(PID.TID 0000.0001) %MON obc_N_vVel_max               =   1.5032562411134E-05
(PID.TID 0000.0001) %MON obc_N_vVel_min               =   1.5032562411134E-05
(PID.TID 0000.0001) %MON obc_N_vVel_mean              =   1.5032562411134E-05
(PID.TID 0000.0001) %MON obc_N_vVel_sd                =   3.2075004082039E-12
(PID.TID 0000.0001) %MON obc_N_vVel_Int               =   9.9214911913484E+02
(PID.TID 0000.0001) // =======================================================
(PID.TID 0000.0001) // End OBCS MONITOR field statistics
(PID.TID 0000.0001) // =======================================================
 cg2d: Sum(rhs),rhsMax =   4.51365026118087E+00  2.99924142191573E+02
(PID.TID 0000.0001)      cg2d_init_res =   6.39642784427073E-06
(PID.TID 0000.0001)      cg2d_iters(min,last) =      -1      80
(PID.TID 0000.0001)      cg2d_last_res =   9.89960313364769E-12
(PID.TID 0000.0001) // =======================================================
(PID.TID 0000.0001) // Begin MONITOR dynamic field statistics
(PID.TID 0000.0001) // =======================================================
(PID.TID 0000.0001) %MON time_tsnumber                =                   915
(PID.TID 0000.0001) %MON time_secondsf                =   9.1500000000000E+04
(PID.TID 0000.0001) %MON dynstat_eta_max              =   5.7960509445818E+00
(PID.TID 0000.0001) %MON dynstat_eta_min              =  -1.4197365653573E+01
(PID.TID 0000.0001) %MON dynstat_eta_mean             =  -2.5069494124767E+00
(PID.TID 0000.0001) %MON dynstat_eta_sd               =   4.9509298075424E+00
(PID.TID 0000.0001) %MON dynstat_eta_del2             =   2.0714716063623E-01
(PID.TID 0000.0001) %MON dynstat_uvel_max             =   3.6507964227930E-03
(PID.TID 0000.0001) %MON dynstat_uvel_min             =  -1.6287749087507E-02
(PID.TID 0000.0001) %MON dynstat_uvel_mean            =  -1.1511982914991E-07
(PID.TID 0000.0001) %MON dynstat_uvel_sd              =   4.8210590362720E-04
(PID.TID 0000.0001) %MON dynstat_uvel_del2            =   7.3940859307594E-07
(PID.TID 0000.0001) %MON dynstat_vvel_max             =   1.3087195503032E-02
(PID.TID 0000.0001) %MON dynstat_vvel_min             =  -5.8325787179951E-03
(PID.TID 0000.0001) %MON dynstat_vvel_mean            =   1.5274011705478E-05
(PID.TID 0000.0001) %MON dynstat_vvel_sd              =   3.1293936542635E-04
(PID.TID 0000.0001) %MON dynstat_vvel_del2            =   6.3574766275250E-07
(PID.TID 0000.0001) %MON dynstat_wvel_max             =   6.2555629012337E-04
(PID.TID 0000.0001) %MON dynstat_wvel_min             =  -6.1722144776002E-04
(PID.TID 0000.0001) %MON dynstat_wvel_mean            =   6.8854710998884E-09
(PID.TID 0000.0001) %MON dynstat_wvel_sd              =   1.5190931332617E-05
(PID.TID 0000.0001) %MON dynstat_wvel_del2            =   6.4072463915345E-08
(PID.TID 0000.0001) %MON dynstat_theta_max            =   1.2000000000000E+00
(PID.TID 0000.0001) %MON dynstat_theta_min            =  -1.0000000000000E+00
(PID.TID 0000.0001) %MON dynstat_theta_mean           =   5.6883915787964E-01
(PID.TID 0000.0001) %MON dynstat_theta_sd             =   8.6844130051115E-01
(PID.TID 0000.0001) %MON dynstat_theta_del2           =   2.0059418398309E-06
(PID.TID 0000.0001) %MON dynstat_salt_max             =   3.4700000000000E+01
(PID.TID 0000.0001) %MON dynstat_salt_min             =   3.4000000000000E+01
(PID.TID 0000.0001) %MON dynstat_salt_mean            =   3.4499149839463E+01
(PID.TID 0000.0001) %MON dynstat_salt_sd              =   2.7631303211509E-01
(PID.TID 0000.0001) %MON dynstat_salt_del2            =   7.8798458909474E-07
(PID.TID 0000.0001) %MON advcfl_uvel_max              =   1.6287749087507E-03
(PID.TID 0000.0001) %MON advcfl_vvel_max              =   1.3087195503032E-03
(PID.TID 0000.0001) %MON advcfl_wvel_max              =   3.1277814506169E-03
(PID.TID 0000.0001) %MON advcfl_W_hf_max              =   3.1277814506169E-03
(PID.TID 0000.0001) %MON pe_b_mean                    =  -8.3075385110246E-01
(PID.TID 0000.0001) %MON ke_max                       =   8.3935735457007E-05
(PID.TID 0000.0001) %MON ke_mean                      =   1.6298768330477E-07
(PID.TID 0000.0001) %MON ke_vol                       =   4.2724887880958E+12
(PID.TID 0000.0001) // =======================================================
(PID.TID 0000.0001) // End MONITOR dynamic field statistics
(PID.TID 0000.0001) // =======================================================
(PID.TID 0000.0001) // =======================================================
(PID.TID 0000.0001) // Begin OBCS MONITOR field statistics
(PID.TID 0000.0001) // =======================================================
(PID.TID 0000.0001) %MON obc_N_vVel_max               =   1.5010327586770E-05
(PID.TID 0000.0001) %MON obc_N_vVel_min               =   1.5010327586769E-05
(PID.TID 0000.0001) %MON obc_N_vVel_mean              =   1.5010327586770E-05
(PID.TID 0000.0001) %MON obc_N_vVel_sd                =  -2.7374508396677E-23
(PID.TID 0000.0001) %MON obc_N_vVel_Int               =   9.9068162072682E+02
(PID.TID 0000.0001) // =======================================================
(PID.TID 0000.0001) // End OBCS MONITOR field statistics
(PID.TID 0000.0001) // =======================================================
 cg2d: Sum(rhs),rhsMax =   4.51366957622830E+00  2.99924215876803E+02
(PID.TID 0000.0001)      cg2d_init_res =   6.37499685693133E-06
(PID.TID 0000.0001)      cg2d_iters(min,last) =      -1      80
(PID.TID 0000.0001)      cg2d_last_res =   9.90067102508446E-12
(PID.TID 0000.0001) // =======================================================
(PID.TID 0000.0001) // Begin MONITOR dynamic field statistics
(PID.TID 0000.0001) // =======================================================
(PID.TID 0000.0001) %MON time_tsnumber                =                   916
(PID.TID 0000.0001) %MON time_secondsf                =   9.1600000000000E+04
(PID.TID 0000.0001) %MON dynstat_eta_max              =   5.7960454356304E+00
(PID.TID 0000.0001) %MON dynstat_eta_min              =  -1.4197388338863E+01
(PID.TID 0000.0001) %MON dynstat_eta_mean             =  -2.5069607562542E+00
(PID.TID 0000.0001) %MON dynstat_eta_sd               =   4.9509337251819E+00
(PID.TID 0000.0001) %MON dynstat_eta_del2             =   2.0714718299713E-01
(PID.TID 0000.0001) %MON dynstat_uvel_max             =   3.6605708852875E-03
(PID.TID 0000.0001) %MON dynstat_uvel_min             =  -1.6330303278185E-02
(PID.TID 0000.0001) %MON dynstat_uvel_mean            =  -1.1505828220458E-07
(PID.TID 0000.0001) %MON dynstat_uvel_sd              =   4.8336813937422E-04
(PID.TID 0000.0001) %MON dynstat_uvel_del2            =   7.4100825879595E-07
(PID.TID 0000.0001) %MON dynstat_vvel_max             =   1.3119893707169E-02
(PID.TID 0000.0001) %MON dynstat_vvel_min             =  -5.8435882659840E-03
(PID.TID 0000.0001) %MON dynstat_vvel_mean            =   1.5247308668376E-05
(PID.TID 0000.0001) %MON dynstat_vvel_sd              =   3.1360883475700E-04
(PID.TID 0000.0001) %MON dynstat_vvel_del2            =   6.3689711318546E-07
(PID.TID 0000.0001) %MON dynstat_wvel_max             =   6.2739298379674E-04
(PID.TID 0000.0001) %MON dynstat_wvel_min             =  -6.1893505874714E-04
(PID.TID 0000.0001) %MON dynstat_wvel_mean            =   6.8473014651856E-09
(PID.TID 0000.0001) %MON dynstat_wvel_sd              =   1.5150043684140E-05
(PID.TID 0000.0001) %MON dynstat_wvel_del2            =   6.3859381630828E-08
(PID.TID 0000.0001) %MON dynstat_theta_max            =   1.2000000000000E+00
(PID.TID 0000.0001) %MON dynstat_theta_min            =  -1.0000000000000E+00
(PID.TID 0000.0001) %MON dynstat_theta_mean           =   5.6883852521810E-01
(PID.TID 0000.0001) %MON dynstat_theta_sd             =   8.6844095567862E-01
(PID.TID 0000.0001) %MON dynstat_theta_del2           =   2.0100897435026E-06
(PID.TID 0000.0001) %MON dynstat_salt_max             =   3.4700000000000E+01
(PID.TID 0000.0001) %MON dynstat_salt_min             =   3.4000000000000E+01
(PID.TID 0000.0001) %MON dynstat_salt_mean            =   3.4499149586403E+01
(PID.TID 0000.0001) %MON dynstat_salt_sd              =   2.7631290003480E-01
(PID.TID 0000.0001) %MON dynstat_salt_del2            =   7.8963041659024E-07
(PID.TID 0000.0001) %MON advcfl_uvel_max              =   1.6330303278185E-03
(PID.TID 0000.0001) %MON advcfl_vvel_max              =   1.3119893707169E-03
(PID.TID 0000.0001) %MON advcfl_wvel_max              =   3.1369649189837E-03
(PID.TID 0000.0001) %MON advcfl_W_hf_max              =   3.1369649189837E-03
(PID.TID 0000.0001) %MON pe_b_mean                    =  -8.3075691922773E-01
(PID.TID 0000.0001) %MON ke_max                       =   8.4462624582640E-05
(PID.TID 0000.0001) %MON ke_mean                      =   1.6379424377171E-07
(PID.TID 0000.0001) %MON ke_vol                       =   4.2724887204899E+12
(PID.TID 0000.0001) // =======================================================
(PID.TID 0000.0001) // End MONITOR dynamic field statistics
(PID.TID 0000.0001) // =======================================================
(PID.TID 0000.0001) // =======================================================
(PID.TID 0000.0001) // Begin OBCS MONITOR field statistics
(PID.TID 0000.0001) // =======================================================
(PID.TID 0000.0001) %MON obc_N_vVel_max               =   1.4986519734019E-05
(PID.TID 0000.0001) %MON obc_N_vVel_min               =   1.4986519734018E-05
(PID.TID 0000.0001) %MON obc_N_vVel_mean              =   1.4986519734018E-05
(PID.TID 0000.0001) %MON obc_N_vVel_sd                =   3.0842465926641E-12
(PID.TID 0000.0001) %MON obc_N_vVel_Int               =   9.8911030244520E+02
(PID.TID 0000.0001) // =======================================================
(PID.TID 0000.0001) // End OBCS MONITOR field statistics
(PID.TID 0000.0001) // =======================================================
 cg2d: Sum(rhs),rhsMax =   4.51368883261862E+00  2.99924288746827E+02
(PID.TID 0000.0001)      cg2d_init_res =   6.35201459097376E-06
(PID.TID 0000.0001)      cg2d_iters(min,last) =      -1      80
(PID.TID 0000.0001)      cg2d_last_res =   9.90151811110446E-12
(PID.TID 0000.0001) // =======================================================
(PID.TID 0000.0001) // Begin MONITOR dynamic field statistics
(PID.TID 0000.0001) // =======================================================
(PID.TID 0000.0001) %MON time_tsnumber                =                   917
(PID.TID 0000.0001) %MON time_secondsf                =   9.1700000000000E+04
(PID.TID 0000.0001) %MON dynstat_eta_max              =   5.7960400132256E+00
(PID.TID 0000.0001) %MON dynstat_eta_min              =  -1.4197410961491E+01
(PID.TID 0000.0001) %MON dynstat_eta_mean             =  -2.5069720606438E+00
(PID.TID 0000.0001) %MON dynstat_eta_sd               =   4.9509376291706E+00
(PID.TID 0000.0001) %MON dynstat_eta_del2             =   2.0714720539877E-01
(PID.TID 0000.0001) %MON dynstat_uvel_max             =   3.6703663779640E-03
(PID.TID 0000.0001) %MON dynstat_uvel_min             =  -1.6372929086209E-02
(PID.TID 0000.0001) %MON dynstat_uvel_mean            =  -1.1500262012710E-07
(PID.TID 0000.0001) %MON dynstat_uvel_sd              =   4.8463285918851E-04
(PID.TID 0000.0001) %MON dynstat_uvel_del2            =   7.4261233525689E-07
(PID.TID 0000.0001) %MON dynstat_vvel_max             =   1.3152645543520E-02
(PID.TID 0000.0001) %MON dynstat_vvel_min             =  -5.8546104569226E-03
(PID.TID 0000.0001) %MON dynstat_vvel_mean            =   1.5218975475482E-05
(PID.TID 0000.0001) %MON dynstat_vvel_sd              =   3.1429352776406E-04
(PID.TID 0000.0001) %MON dynstat_vvel_del2            =   6.3802998224239E-07
(PID.TID 0000.0001) %MON dynstat_wvel_max             =   6.2923369028861E-04
(PID.TID 0000.0001) %MON dynstat_wvel_min             =  -6.2065260244123E-04
(PID.TID 0000.0001) %MON dynstat_wvel_mean            =   6.8079411450011E-09
(PID.TID 0000.0001) %MON dynstat_wvel_sd              =   1.5118756325684E-05
(PID.TID 0000.0001) %MON dynstat_wvel_del2            =   6.3592993042150E-08
(PID.TID 0000.0001) %MON dynstat_theta_max            =   1.2000000000000E+00
(PID.TID 0000.0001) %MON dynstat_theta_min            =  -1.0000000000000E+00
(PID.TID 0000.0001) %MON dynstat_theta_mean           =   5.6883789114955E-01
(PID.TID 0000.0001) %MON dynstat_theta_sd             =   8.6844061016976E-01
(PID.TID 0000.0001) %MON dynstat_theta_del2           =   2.0142524782315E-06
(PID.TID 0000.0001) %MON dynstat_salt_max             =   3.4700000000000E+01
(PID.TID 0000.0001) %MON dynstat_salt_min             =   3.4000000000000E+01
(PID.TID 0000.0001) %MON dynstat_salt_mean            =   3.4499149332784E+01
(PID.TID 0000.0001) %MON dynstat_salt_sd              =   2.7631276768790E-01
(PID.TID 0000.0001) %MON dynstat_salt_del2            =   7.9128250740768E-07
(PID.TID 0000.0001) %MON advcfl_uvel_max              =   1.6372929086209E-03
(PID.TID 0000.0001) %MON advcfl_vvel_max              =   1.3152645543520E-03
(PID.TID 0000.0001) %MON advcfl_wvel_max              =   3.1461684514430E-03
(PID.TID 0000.0001) %MON advcfl_W_hf_max              =   3.1461684514430E-03
(PID.TID 0000.0001) %MON pe_b_mean                    =  -8.3075997603454E-01
(PID.TID 0000.0001) %MON ke_max                       =   8.4992483208717E-05
(PID.TID 0000.0001) %MON ke_mean                      =   1.6460875431309E-07
(PID.TID 0000.0001) %MON ke_vol                       =   4.2724886531079E+12
(PID.TID 0000.0001) // =======================================================
(PID.TID 0000.0001) // End MONITOR dynamic field statistics
(PID.TID 0000.0001) // =======================================================
(PID.TID 0000.0001) // =======================================================
(PID.TID 0000.0001) // Begin OBCS MONITOR field statistics
(PID.TID 0000.0001) // =======================================================
(PID.TID 0000.0001) %MON obc_N_vVel_max               =   1.4961194222977E-05
(PID.TID 0000.0001) %MON obc_N_vVel_min               =   1.4961194222977E-05
(PID.TID 0000.0001) %MON obc_N_vVel_mean              =   1.4961194222977E-05
(PID.TID 0000.0001) %MON obc_N_vVel_sd                =  -7.2378303598390E-25
(PID.TID 0000.0001) %MON obc_N_vVel_Int               =   9.8743881871647E+02
(PID.TID 0000.0001) // =======================================================
(PID.TID 0000.0001) // End OBCS MONITOR field statistics
(PID.TID 0000.0001) // =======================================================
 cg2d: Sum(rhs),rhsMax =   4.51370802755439E+00  2.99924360792334E+02
(PID.TID 0000.0001)      cg2d_init_res =   6.32787809998040E-06
(PID.TID 0000.0001)      cg2d_iters(min,last) =      -1      80
(PID.TID 0000.0001)      cg2d_last_res =   9.90233188885550E-12
(PID.TID 0000.0001) // =======================================================
(PID.TID 0000.0001) // Begin MONITOR dynamic field statistics
(PID.TID 0000.0001) // =======================================================
(PID.TID 0000.0001) %MON time_tsnumber                =                   918
(PID.TID 0000.0001) %MON time_secondsf                =   9.1800000000000E+04
(PID.TID 0000.0001) %MON dynstat_eta_max              =   5.7960346801923E+00
(PID.TID 0000.0001) %MON dynstat_eta_min              =  -1.4197433518703E+01
(PID.TID 0000.0001) %MON dynstat_eta_mean             =  -2.5069833240138E+00
(PID.TID 0000.0001) %MON dynstat_eta_sd               =   4.9509415190430E+00
(PID.TID 0000.0001) %MON dynstat_eta_del2             =   2.0714722784090E-01
(PID.TID 0000.0001) %MON dynstat_uvel_max             =   3.6801829201139E-03
(PID.TID 0000.0001) %MON dynstat_uvel_min             =  -1.6415626445486E-02
(PID.TID 0000.0001) %MON dynstat_uvel_mean            =  -1.1495288697095E-07
(PID.TID 0000.0001) %MON dynstat_uvel_sd              =   4.8590007780321E-04
(PID.TID 0000.0001) %MON dynstat_uvel_del2            =   7.4422085767534E-07
(PID.TID 0000.0001) %MON dynstat_vvel_max             =   1.3185451007162E-02
(PID.TID 0000.0001) %MON dynstat_vvel_min             =  -5.8656452980737E-03
(PID.TID 0000.0001) %MON dynstat_vvel_mean            =   1.5189091212433E-05
(PID.TID 0000.0001) %MON dynstat_vvel_sd              =   3.1499400749715E-04
(PID.TID 0000.0001) %MON dynstat_vvel_del2            =   6.3915671077120E-07
(PID.TID 0000.0001) %MON dynstat_wvel_max             =   6.3107841296882E-04
(PID.TID 0000.0001) %MON dynstat_wvel_min             =  -6.2237408192924E-04
(PID.TID 0000.0001) %MON dynstat_wvel_mean            =   6.7675677203294E-09
(PID.TID 0000.0001) %MON dynstat_wvel_sd              =   1.5101602441380E-05
(PID.TID 0000.0001) %MON dynstat_wvel_del2            =   6.3312917467557E-08
(PID.TID 0000.0001) %MON dynstat_theta_max            =   1.2000000000000E+00
(PID.TID 0000.0001) %MON dynstat_theta_min            =  -1.0000000000000E+00
(PID.TID 0000.0001) %MON dynstat_theta_mean           =   5.6883725567266E-01
(PID.TID 0000.0001) %MON dynstat_theta_sd             =   8.6844026398324E-01
(PID.TID 0000.0001) %MON dynstat_theta_del2           =   2.0184185463306E-06
(PID.TID 0000.0001) %MON dynstat_salt_max             =   3.4700000000000E+01
(PID.TID 0000.0001) %MON dynstat_salt_min             =   3.4000000000000E+01
(PID.TID 0000.0001) %MON dynstat_salt_mean            =   3.4499149078607E+01
(PID.TID 0000.0001) %MON dynstat_salt_sd              =   2.7631263507402E-01
(PID.TID 0000.0001) %MON dynstat_salt_del2            =   7.9293796216935E-07
(PID.TID 0000.0001) %MON advcfl_uvel_max              =   1.6415626445486E-03
(PID.TID 0000.0001) %MON advcfl_vvel_max              =   1.3185451007162E-03
(PID.TID 0000.0001) %MON advcfl_wvel_max              =   3.1553920648441E-03
(PID.TID 0000.0001) %MON advcfl_W_hf_max              =   3.1553920648441E-03
(PID.TID 0000.0001) %MON pe_b_mean                    =  -8.3076302112551E-01
(PID.TID 0000.0001) %MON ke_max                       =   8.5525324905000E-05
(PID.TID 0000.0001) %MON ke_mean                      =   1.6543144112470E-07
(PID.TID 0000.0001) %MON ke_vol                       =   4.2724885859598E+12
(PID.TID 0000.0001) // =======================================================
(PID.TID 0000.0001) // End MONITOR dynamic field statistics
(PID.TID 0000.0001) // =======================================================
(PID.TID 0000.0001) // =======================================================
(PID.TID 0000.0001) // Begin OBCS MONITOR field statistics
(PID.TID 0000.0001) // =======================================================
(PID.TID 0000.0001) %MON obc_N_vVel_max               =   1.4934416639642E-05
(PID.TID 0000.0001) %MON obc_N_vVel_min               =   1.4934416639642E-05
(PID.TID 0000.0001) %MON obc_N_vVel_mean              =   1.4934416639642E-05
(PID.TID 0000.0001) %MON obc_N_vVel_sd                =   2.6710359007827E-12
(PID.TID 0000.0001) %MON obc_N_vVel_Int               =   9.8567149821637E+02
(PID.TID 0000.0001) // =======================================================
(PID.TID 0000.0001) // End OBCS MONITOR field statistics
(PID.TID 0000.0001) // =======================================================
 cg2d: Sum(rhs),rhsMax =   4.51372715833370E+00  2.99924432008085E+02
(PID.TID 0000.0001)      cg2d_init_res =   6.30303623125206E-06
(PID.TID 0000.0001)      cg2d_iters(min,last) =      -1      80
(PID.TID 0000.0001)      cg2d_last_res =   9.90342623121731E-12
(PID.TID 0000.0001) // =======================================================
(PID.TID 0000.0001) // Begin MONITOR dynamic field statistics
(PID.TID 0000.0001) // =======================================================
(PID.TID 0000.0001) %MON time_tsnumber                =                   919
(PID.TID 0000.0001) %MON time_secondsf                =   9.1900000000000E+04
(PID.TID 0000.0001) %MON dynstat_eta_max              =   5.7960294392115E+00
(PID.TID 0000.0001) %MON dynstat_eta_min              =  -1.4197456007904E+01
(PID.TID 0000.0001) %MON dynstat_eta_mean             =  -2.5069945448198E+00
(PID.TID 0000.0001) %MON dynstat_eta_sd               =   4.9509453943722E+00
(PID.TID 0000.0001) %MON dynstat_eta_del2             =   2.0714725032327E-01
(PID.TID 0000.0001) %MON dynstat_uvel_max             =   3.6900205300121E-03
(PID.TID 0000.0001) %MON dynstat_uvel_min             =  -1.6458395289838E-02
(PID.TID 0000.0001) %MON dynstat_uvel_mean            =  -1.1490914028996E-07
(PID.TID 0000.0001) %MON dynstat_uvel_sd              =   4.8716981387364E-04
(PID.TID 0000.0001) %MON dynstat_uvel_del2            =   7.4583386238108E-07
(PID.TID 0000.0001) %MON dynstat_vvel_max             =   1.3218310094781E-02
(PID.TID 0000.0001) %MON dynstat_vvel_min             =  -5.8766927948763E-03
(PID.TID 0000.0001) %MON dynstat_vvel_mean            =   1.5157747420006E-05
(PID.TID 0000.0001) %MON dynstat_vvel_sd              =   3.1571063009013E-04
(PID.TID 0000.0001) %MON dynstat_vvel_del2            =   6.4028800950958E-07
(PID.TID 0000.0001) %MON dynstat_wvel_max             =   6.3292715515371E-04
(PID.TID 0000.0001) %MON dynstat_wvel_min             =  -6.2409950031611E-04
(PID.TID 0000.0001) %MON dynstat_wvel_mean            =   6.7263775684218E-09
(PID.TID 0000.0001) %MON dynstat_wvel_sd              =   1.5102974286209E-05
(PID.TID 0000.0001) %MON dynstat_wvel_del2            =   6.3060785951438E-08
(PID.TID 0000.0001) %MON dynstat_theta_max            =   1.2000000000000E+00
(PID.TID 0000.0001) %MON dynstat_theta_min            =  -1.0000000000000E+00
(PID.TID 0000.0001) %MON dynstat_theta_mean           =   5.6883661878743E-01
(PID.TID 0000.0001) %MON dynstat_theta_sd             =   8.6843991712148E-01
(PID.TID 0000.0001) %MON dynstat_theta_del2           =   2.0225771583466E-06
(PID.TID 0000.0001) %MON dynstat_salt_max             =   3.4700000000000E+01
(PID.TID 0000.0001) %MON dynstat_salt_min             =   3.4000000000000E+01
(PID.TID 0000.0001) %MON dynstat_salt_mean            =   3.4499148823870E+01
(PID.TID 0000.0001) %MON dynstat_salt_sd              =   2.7631250219364E-01
(PID.TID 0000.0001) %MON dynstat_salt_del2            =   7.9459403151852E-07
(PID.TID 0000.0001) %MON advcfl_uvel_max              =   1.6458395289838E-03
(PID.TID 0000.0001) %MON advcfl_vvel_max              =   1.3218310094781E-03
(PID.TID 0000.0001) %MON advcfl_wvel_max              =   3.1646357757686E-03
(PID.TID 0000.0001) %MON advcfl_W_hf_max              =   3.1646357757686E-03
(PID.TID 0000.0001) %MON pe_b_mean                    =  -8.3076605412853E-01
(PID.TID 0000.0001) %MON ke_max                       =   8.6061163288742E-05
(PID.TID 0000.0001) %MON ke_mean                      =   1.6626246954012E-07
(PID.TID 0000.0001) %MON ke_vol                       =   4.2724885190554E+12
(PID.TID 0000.0001) // =======================================================
(PID.TID 0000.0001) // End MONITOR dynamic field statistics
(PID.TID 0000.0001) // =======================================================
(PID.TID 0000.0001) // =======================================================
(PID.TID 0000.0001) // Begin OBCS MONITOR field statistics
(PID.TID 0000.0001) // =======================================================
(PID.TID 0000.0001) %MON obc_N_vVel_max               =   1.4906263307755E-05
(PID.TID 0000.0001) %MON obc_N_vVel_min               =   1.4906263307754E-05
(PID.TID 0000.0001) %MON obc_N_vVel_mean              =   1.4906263307754E-05
(PID.TID 0000.0001) %MON obc_N_vVel_sd                =   2.6999128038001E-12
(PID.TID 0000.0001) %MON obc_N_vVel_Int               =   9.8381337831177E+02
(PID.TID 0000.0001) // =======================================================
(PID.TID 0000.0001) // End OBCS MONITOR field statistics
(PID.TID 0000.0001) // =======================================================
 cg2d: Sum(rhs),rhsMax =   4.51374622236932E+00  2.99924502392606E+02
(PID.TID 0000.0001)      cg2d_init_res =   6.27795750026045E-06
(PID.TID 0000.0001)      cg2d_iters(min,last) =      -1      80
(PID.TID 0000.0001)      cg2d_last_res =   9.90515212157470E-12
(PID.TID 0000.0001) // =======================================================
(PID.TID 0000.0001) // Begin MONITOR dynamic field statistics
(PID.TID 0000.0001) // =======================================================
(PID.TID 0000.0001) %MON time_tsnumber                =                   920
(PID.TID 0000.0001) %MON time_secondsf                =   9.2000000000000E+04
(PID.TID 0000.0001) %MON dynstat_eta_max              =   5.7960242927822E+00
(PID.TID 0000.0001) %MON dynstat_eta_min              =  -1.4197478426701E+01
(PID.TID 0000.0001) %MON dynstat_eta_mean             =  -2.5070057216123E+00
(PID.TID 0000.0001) %MON dynstat_eta_sd               =   4.9509492547741E+00
(PID.TID 0000.0001) %MON dynstat_eta_del2             =   2.0714727284570E-01
(PID.TID 0000.0001) %MON dynstat_uvel_max             =   3.6998792254650E-03
(PID.TID 0000.0001) %MON dynstat_uvel_min             =  -1.6501235552958E-02
(PID.TID 0000.0001) %MON dynstat_uvel_mean            =  -1.1487149657609E-07
(PID.TID 0000.0001) %MON dynstat_uvel_sd              =   4.8844208980503E-04
(PID.TID 0000.0001) %MON dynstat_uvel_del2            =   7.4745138713899E-07
(PID.TID 0000.0001) %MON dynstat_vvel_max             =   1.3251222804538E-02
(PID.TID 0000.0001) %MON dynstat_vvel_min             =  -5.8877529513435E-03
(PID.TID 0000.0001) %MON dynstat_vvel_mean            =   1.5125048115616E-05
(PID.TID 0000.0001) %MON dynstat_vvel_sd              =   3.1644348724086E-04
(PID.TID 0000.0001) %MON dynstat_vvel_del2            =   6.4143375070708E-07
(PID.TID 0000.0001) %MON dynstat_wvel_max             =   6.3477992010463E-04
(PID.TID 0000.0001) %MON dynstat_wvel_min             =  -6.2582886090140E-04
(PID.TID 0000.0001) %MON dynstat_wvel_mean            =   6.6845848134087E-09
(PID.TID 0000.0001) %MON dynstat_wvel_sd              =   1.5126659559795E-05
(PID.TID 0000.0001) %MON dynstat_wvel_del2            =   6.2875954188945E-08
(PID.TID 0000.0001) %MON dynstat_theta_max            =   1.2000000000000E+00
(PID.TID 0000.0001) %MON dynstat_theta_min            =  -1.0000000000000E+00
(PID.TID 0000.0001) %MON dynstat_theta_mean           =   5.6883598049463E-01
(PID.TID 0000.0001) %MON dynstat_theta_sd             =   8.6843956958772E-01
(PID.TID 0000.0001) %MON dynstat_theta_del2           =   2.0267192056890E-06
(PID.TID 0000.0001) %MON dynstat_salt_max             =   3.4700000000000E+01
(PID.TID 0000.0001) %MON dynstat_salt_min             =   3.4000000000000E+01
(PID.TID 0000.0001) %MON dynstat_salt_mean            =   3.4499148568573E+01
(PID.TID 0000.0001) %MON dynstat_salt_sd              =   2.7631236904796E-01
(PID.TID 0000.0001) %MON dynstat_salt_del2            =   7.9624840054708E-07
(PID.TID 0000.0001) %MON advcfl_uvel_max              =   1.6501235552958E-03
(PID.TID 0000.0001) %MON advcfl_vvel_max              =   1.3251222804538E-03
(PID.TID 0000.0001) %MON advcfl_wvel_max              =   3.1738996005232E-03
(PID.TID 0000.0001) %MON advcfl_W_hf_max              =   3.1738996005232E-03
(PID.TID 0000.0001) %MON pe_b_mean                    =  -8.3076907469899E-01
(PID.TID 0000.0001) %MON ke_max                       =   8.6600012022253E-05
(PID.TID 0000.0001) %MON ke_mean                      =   1.6710192510173E-07
(PID.TID 0000.0001) %MON ke_vol                       =   4.2724884524038E+12
(PID.TID 0000.0001) // =======================================================
(PID.TID 0000.0001) // End MONITOR dynamic field statistics
(PID.TID 0000.0001) // =======================================================
(PID.TID 0000.0001) // =======================================================
(PID.TID 0000.0001) // Begin OBCS MONITOR field statistics
(PID.TID 0000.0001) // =======================================================
(PID.TID 0000.0001) %MON obc_N_vVel_max               =   1.4876821533828E-05
(PID.TID 0000.0001) %MON obc_N_vVel_min               =   1.4876821533827E-05
(PID.TID 0000.0001) %MON obc_N_vVel_mean              =   1.4876821533827E-05
(PID.TID 0000.0001) %MON obc_N_vVel_sd                =   2.8444437710270E-12
(PID.TID 0000.0001) %MON obc_N_vVel_Int               =   9.8187022123260E+02
(PID.TID 0000.0001) // =======================================================
(PID.TID 0000.0001) // End OBCS MONITOR field statistics
(PID.TID 0000.0001) // =======================================================
 cg2d: Sum(rhs),rhsMax =   4.51376521720644E+00  2.99924571949026E+02
(PID.TID 0000.0001)      cg2d_init_res =   6.25308682353948E-06
(PID.TID 0000.0001)      cg2d_iters(min,last) =      -1      80
(PID.TID 0000.0001)      cg2d_last_res =   9.90771426489508E-12
(PID.TID 0000.0001) // =======================================================
(PID.TID 0000.0001) // Begin MONITOR dynamic field statistics
(PID.TID 0000.0001) // =======================================================
(PID.TID 0000.0001) %MON time_tsnumber                =                   921
(PID.TID 0000.0001) %MON time_secondsf                =   9.2100000000000E+04
(PID.TID 0000.0001) %MON dynstat_eta_max              =   5.7960192431818E+00
(PID.TID 0000.0001) %MON dynstat_eta_min              =  -1.4197500772909E+01
(PID.TID 0000.0001) %MON dynstat_eta_mean             =  -2.5070168530538E+00
(PID.TID 0000.0001) %MON dynstat_eta_sd               =   4.9509530999113E+00
(PID.TID 0000.0001) %MON dynstat_eta_del2             =   2.0714729540805E-01
(PID.TID 0000.0001) %MON dynstat_uvel_max             =   3.7097590239732E-03
(PID.TID 0000.0001) %MON dynstat_uvel_min             =  -1.6544147168137E-02
(PID.TID 0000.0001) %MON dynstat_uvel_mean            =  -1.1484015304364E-07
(PID.TID 0000.0001) %MON dynstat_uvel_sd              =   4.8971693153208E-04
(PID.TID 0000.0001) %MON dynstat_uvel_del2            =   7.4907347126932E-07
(PID.TID 0000.0001) %MON dynstat_vvel_max             =   1.3284189135820E-02
(PID.TID 0000.0001) %MON dynstat_vvel_min             =  -5.8988257702781E-03
(PID.TID 0000.0001) %MON dynstat_vvel_mean            =   1.5091109676296E-05
(PID.TID 0000.0001) %MON dynstat_vvel_sd              =   3.1719235767304E-04
(PID.TID 0000.0001) %MON dynstat_vvel_del2            =   6.4260197195262E-07
(PID.TID 0000.0001) %MON dynstat_wvel_max             =   6.3663671102563E-04
(PID.TID 0000.0001) %MON dynstat_wvel_min             =  -6.2756216690247E-04
(PID.TID 0000.0001) %MON dynstat_wvel_mean            =   6.6424125179777E-09
(PID.TID 0000.0001) %MON dynstat_wvel_sd              =   1.5175414821674E-05
(PID.TID 0000.0001) %MON dynstat_wvel_del2            =   6.2791232591899E-08
(PID.TID 0000.0001) %MON dynstat_theta_max            =   1.2000000000000E+00
(PID.TID 0000.0001) %MON dynstat_theta_min            =  -1.0000000000000E+00
(PID.TID 0000.0001) %MON dynstat_theta_mean           =   5.6883534079620E-01
(PID.TID 0000.0001) %MON dynstat_theta_sd             =   8.6843922138279E-01
(PID.TID 0000.0001) %MON dynstat_theta_del2           =   2.0308382263352E-06
(PID.TID 0000.0001) %MON dynstat_salt_max             =   3.4700000000000E+01
(PID.TID 0000.0001) %MON dynstat_salt_min             =   3.4000000000000E+01
(PID.TID 0000.0001) %MON dynstat_salt_mean            =   3.4499148312719E+01
(PID.TID 0000.0001) %MON dynstat_salt_sd              =   2.7631223563716E-01
(PID.TID 0000.0001) %MON dynstat_salt_del2            =   7.9789943501647E-07
(PID.TID 0000.0001) %MON advcfl_uvel_max              =   1.6544147168137E-03
(PID.TID 0000.0001) %MON advcfl_vvel_max              =   1.3284189135820E-03
(PID.TID 0000.0001) %MON advcfl_wvel_max              =   3.1831835551282E-03
(PID.TID 0000.0001) %MON advcfl_W_hf_max              =   3.1831835551282E-03
(PID.TID 0000.0001) %MON pe_b_mean                    =  -8.3077208252384E-01
(PID.TID 0000.0001) %MON ke_max                       =   8.7141884809715E-05
(PID.TID 0000.0001) %MON ke_mean                      =   1.6794979714639E-07
(PID.TID 0000.0001) %MON ke_vol                       =   4.2724883860136E+12
(PID.TID 0000.0001) // =======================================================
(PID.TID 0000.0001) // End MONITOR dynamic field statistics
(PID.TID 0000.0001) // =======================================================
(PID.TID 0000.0001) // =======================================================
(PID.TID 0000.0001) // Begin OBCS MONITOR field statistics
(PID.TID 0000.0001) // =======================================================
(PID.TID 0000.0001) %MON obc_N_vVel_max               =   1.4846190142032E-05
(PID.TID 0000.0001) %MON obc_N_vVel_min               =   1.4846190142032E-05
(PID.TID 0000.0001) %MON obc_N_vVel_mean              =   1.4846190142032E-05
(PID.TID 0000.0001) %MON obc_N_vVel_sd                =  -1.0805046751474E-23
(PID.TID 0000.0001) %MON obc_N_vVel_Int               =   9.7984854937410E+02
(PID.TID 0000.0001) // =======================================================
(PID.TID 0000.0001) // End OBCS MONITOR field statistics
(PID.TID 0000.0001) // =======================================================
 cg2d: Sum(rhs),rhsMax =   4.51378414054856E+00  2.99924640684591E+02
(PID.TID 0000.0001)      cg2d_init_res =   6.22881907422093E-06
(PID.TID 0000.0001)      cg2d_iters(min,last) =      -1      80
(PID.TID 0000.0001)      cg2d_last_res =   9.91139325861355E-12
(PID.TID 0000.0001) // =======================================================
(PID.TID 0000.0001) // Begin MONITOR dynamic field statistics
(PID.TID 0000.0001) // =======================================================
(PID.TID 0000.0001) %MON time_tsnumber                =                   922
(PID.TID 0000.0001) %MON time_secondsf                =   9.2200000000000E+04
(PID.TID 0000.0001) %MON dynstat_eta_max              =   5.7960142924628E+00
(PID.TID 0000.0001) %MON dynstat_eta_min              =  -1.4197523044581E+01
(PID.TID 0000.0001) %MON dynstat_eta_mean             =  -2.5070279379293E+00
(PID.TID 0000.0001) %MON dynstat_eta_sd               =   4.9509569294968E+00
(PID.TID 0000.0001) %MON dynstat_eta_del2             =   2.0714731801024E-01
(PID.TID 0000.0001) %MON dynstat_uvel_max             =   3.7196599427638E-03
(PID.TID 0000.0001) %MON dynstat_uvel_min             =  -1.6587130068089E-02
(PID.TID 0000.0001) %MON dynstat_uvel_mean            =  -1.1481538794118E-07
(PID.TID 0000.0001) %MON dynstat_uvel_sd              =   4.9099436824908E-04
(PID.TID 0000.0001) %MON dynstat_uvel_del2            =   7.5070015558567E-07
(PID.TID 0000.0001) %MON dynstat_vvel_max             =   1.3317209088591E-02
(PID.TID 0000.0001) %MON dynstat_vvel_min             =  -5.9099112534877E-03
(PID.TID 0000.0001) %MON dynstat_vvel_mean            =   1.5056060455821E-05
(PID.TID 0000.0001) %MON dynstat_vvel_sd              =   3.1795667252573E-04
(PID.TID 0000.0001) %MON dynstat_vvel_del2            =   6.4379809271855E-07
(PID.TID 0000.0001) %MON dynstat_wvel_max             =   6.3849753097637E-04
(PID.TID 0000.0001) %MON dynstat_wvel_min             =  -6.2929942174400E-04
(PID.TID 0000.0001) %MON dynstat_wvel_mean            =   6.6000907991716E-09
(PID.TID 0000.0001) %MON dynstat_wvel_sd              =   1.5250630094125E-05
(PID.TID 0000.0001) %MON dynstat_wvel_del2            =   6.2829180204350E-08
(PID.TID 0000.0001) %MON dynstat_theta_max            =   1.2000000000000E+00
(PID.TID 0000.0001) %MON dynstat_theta_min            =  -1.0000000000000E+00
(PID.TID 0000.0001) %MON dynstat_theta_mean           =   5.6883469969488E-01
(PID.TID 0000.0001) %MON dynstat_theta_sd             =   8.6843887250184E-01
(PID.TID 0000.0001) %MON dynstat_theta_del2           =   2.0349302013382E-06
(PID.TID 0000.0001) %MON dynstat_salt_max             =   3.4700000000000E+01
(PID.TID 0000.0001) %MON dynstat_salt_min             =   3.4000000000000E+01
(PID.TID 0000.0001) %MON dynstat_salt_mean            =   3.4499148056306E+01
(PID.TID 0000.0001) %MON dynstat_salt_sd              =   2.7631210195921E-01
(PID.TID 0000.0001) %MON dynstat_salt_del2            =   7.9954637368595E-07
(PID.TID 0000.0001) %MON advcfl_uvel_max              =   1.6587130068089E-03
(PID.TID 0000.0001) %MON advcfl_vvel_max              =   1.3317209088591E-03
(PID.TID 0000.0001) %MON advcfl_wvel_max              =   3.1924876548819E-03
(PID.TID 0000.0001) %MON advcfl_W_hf_max              =   3.1924876548819E-03
(PID.TID 0000.0001) %MON pe_b_mean                    =  -8.3077507732406E-01
(PID.TID 0000.0001) %MON ke_max                       =   8.7686795397395E-05
(PID.TID 0000.0001) %MON ke_mean                      =   1.6880596650295E-07
(PID.TID 0000.0001) %MON ke_vol                       =   4.2724883198929E+12
(PID.TID 0000.0001) // =======================================================
(PID.TID 0000.0001) // End MONITOR dynamic field statistics
(PID.TID 0000.0001) // =======================================================
(PID.TID 0000.0001) // =======================================================
(PID.TID 0000.0001) // Begin OBCS MONITOR field statistics
(PID.TID 0000.0001) // =======================================================
(PID.TID 0000.0001) %MON obc_N_vVel_max               =   1.4814479229010E-05
(PID.TID 0000.0001) %MON obc_N_vVel_min               =   1.4814479229010E-05
(PID.TID 0000.0001) %MON obc_N_vVel_mean              =   1.4814479229010E-05
(PID.TID 0000.0001) %MON obc_N_vVel_sd                =  -5.8419630761558E-24
(PID.TID 0000.0001) %MON obc_N_vVel_Int               =   9.7775562911469E+02
(PID.TID 0000.0001) // =======================================================
(PID.TID 0000.0001) // End OBCS MONITOR field statistics
(PID.TID 0000.0001) // =======================================================
 cg2d: Sum(rhs),rhsMax =   4.51380299026938E+00  2.99924708611090E+02
(PID.TID 0000.0001)      cg2d_init_res =   6.20547798548986E-06
(PID.TID 0000.0001)      cg2d_iters(min,last) =      -1      80
(PID.TID 0000.0001)      cg2d_last_res =   9.91654413368029E-12
(PID.TID 0000.0001) // =======================================================
(PID.TID 0000.0001) // Begin MONITOR dynamic field statistics
(PID.TID 0000.0001) // =======================================================
(PID.TID 0000.0001) %MON time_tsnumber                =                   923
(PID.TID 0000.0001) %MON time_secondsf                =   9.2300000000000E+04
(PID.TID 0000.0001) %MON dynstat_eta_max              =   5.7960094424158E+00
(PID.TID 0000.0001) %MON dynstat_eta_min              =  -1.4197545240015E+01
(PID.TID 0000.0001) %MON dynstat_eta_mean             =  -2.5070389751563E+00
(PID.TID 0000.0001) %MON dynstat_eta_sd               =   4.9509607432989E+00
(PID.TID 0000.0001) %MON dynstat_eta_del2             =   2.0714734065234E-01
(PID.TID 0000.0001) %MON dynstat_uvel_max             =   3.7295819991314E-03
(PID.TID 0000.0001) %MON dynstat_uvel_min             =  -1.6630184184940E-02
(PID.TID 0000.0001) %MON dynstat_uvel_mean            =  -1.1479756105881E-07
(PID.TID 0000.0001) %MON dynstat_uvel_sd              =   4.9227443207648E-04
(PID.TID 0000.0001) %MON dynstat_uvel_del2            =   7.5233148161206E-07
(PID.TID 0000.0001) %MON dynstat_vvel_max             =   1.3350282662259E-02
(PID.TID 0000.0001) %MON dynstat_vvel_min             =  -5.9210094018445E-03
(PID.TID 0000.0001) %MON dynstat_vvel_mean            =   1.5020040278631E-05
(PID.TID 0000.0001) %MON dynstat_vvel_sd              =   3.1873549842929E-04
(PID.TID 0000.0001) %MON dynstat_vvel_del2            =   6.4502442052169E-07
(PID.TID 0000.0001) %MON dynstat_wvel_max             =   6.4036238262024E-04
(PID.TID 0000.0001) %MON dynstat_wvel_min             =  -6.3104062874015E-04
(PID.TID 0000.0001) %MON dynstat_wvel_mean            =   6.5578538091983E-09
(PID.TID 0000.0001) %MON dynstat_wvel_sd              =   1.5352129096684E-05
(PID.TID 0000.0001) %MON dynstat_wvel_del2            =   6.2999520895702E-08
(PID.TID 0000.0001) %MON dynstat_theta_max            =   1.2000000000000E+00
(PID.TID 0000.0001) %MON dynstat_theta_min            =  -1.0000000000000E+00
(PID.TID 0000.0001) %MON dynstat_theta_mean           =   5.6883405719379E-01
(PID.TID 0000.0001) %MON dynstat_theta_sd             =   8.6843852293547E-01
(PID.TID 0000.0001) %MON dynstat_theta_del2           =   2.0389965759108E-06
(PID.TID 0000.0001) %MON dynstat_salt_max             =   3.4700000000000E+01
(PID.TID 0000.0001) %MON dynstat_salt_min             =   3.4000000000000E+01
(PID.TID 0000.0001) %MON dynstat_salt_mean            =   3.4499147799336E+01
(PID.TID 0000.0001) %MON dynstat_salt_sd              =   2.7631196801145E-01
(PID.TID 0000.0001) %MON dynstat_salt_del2            =   8.0118939844781E-07
(PID.TID 0000.0001) %MON advcfl_uvel_max              =   1.6630184184940E-03
(PID.TID 0000.0001) %MON advcfl_vvel_max              =   1.3350282662259E-03
(PID.TID 0000.0001) %MON advcfl_wvel_max              =   3.2018119131012E-03
(PID.TID 0000.0001) %MON advcfl_W_hf_max              =   3.2018119131012E-03
(PID.TID 0000.0001) %MON pe_b_mean                    =  -8.3077805885707E-01
(PID.TID 0000.0001) %MON ke_max                       =   8.8234757572551E-05
(PID.TID 0000.0001) %MON ke_mean                      =   1.6967019855789E-07
(PID.TID 0000.0001) %MON ke_vol                       =   4.2724882540487E+12
(PID.TID 0000.0001) // =======================================================
(PID.TID 0000.0001) // End MONITOR dynamic field statistics
(PID.TID 0000.0001) // =======================================================
(PID.TID 0000.0001) // =======================================================
(PID.TID 0000.0001) // Begin OBCS MONITOR field statistics
(PID.TID 0000.0001) // =======================================================
(PID.TID 0000.0001) %MON obc_N_vVel_max               =   1.4781809947577E-05
(PID.TID 0000.0001) %MON obc_N_vVel_min               =   1.4781809947576E-05
(PID.TID 0000.0001) %MON obc_N_vVel_mean              =   1.4781809947576E-05
(PID.TID 0000.0001) %MON obc_N_vVel_sd                =   4.1647260977730E-12
(PID.TID 0000.0001) %MON obc_N_vVel_Int               =   9.7559945654003E+02
(PID.TID 0000.0001) // =======================================================
(PID.TID 0000.0001) // End OBCS MONITOR field statistics
(PID.TID 0000.0001) // =======================================================
 cg2d: Sum(rhs),rhsMax =   4.51382176443859E+00  2.99924775744864E+02
(PID.TID 0000.0001)      cg2d_init_res =   6.18325936653537E-06
(PID.TID 0000.0001)      cg2d_iters(min,last) =      -1      80
(PID.TID 0000.0001)      cg2d_last_res =   9.92324090141465E-12
(PID.TID 0000.0001) // =======================================================
(PID.TID 0000.0001) // Begin MONITOR dynamic field statistics
(PID.TID 0000.0001) // =======================================================
(PID.TID 0000.0001) %MON time_tsnumber                =                   924
(PID.TID 0000.0001) %MON time_secondsf                =   9.2400000000000E+04
(PID.TID 0000.0001) %MON dynstat_eta_max              =   5.7960046945745E+00
(PID.TID 0000.0001) %MON dynstat_eta_min              =  -1.4197567357786E+01
(PID.TID 0000.0001) %MON dynstat_eta_mean             =  -2.5070499637991E+00
(PID.TID 0000.0001) %MON dynstat_eta_sd               =   4.9509645411414E+00
(PID.TID 0000.0001) %MON dynstat_eta_del2             =   2.0714736333430E-01
(PID.TID 0000.0001) %MON dynstat_uvel_max             =   3.7395252101078E-03
(PID.TID 0000.0001) %MON dynstat_uvel_min             =  -1.6673309450290E-02
(PID.TID 0000.0001) %MON dynstat_uvel_mean            =  -1.1478709860640E-07
(PID.TID 0000.0001) %MON dynstat_uvel_sd              =   4.9355715773700E-04
(PID.TID 0000.0001) %MON dynstat_uvel_del2            =   7.5396749217562E-07
(PID.TID 0000.0001) %MON dynstat_vvel_max             =   1.3383409856539E-02
(PID.TID 0000.0001) %MON dynstat_vvel_min             =  -5.9321202154932E-03
(PID.TID 0000.0001) %MON dynstat_vvel_mean            =   1.4983199811334E-05
(PID.TID 0000.0001) %MON dynstat_vvel_sd              =   3.1952754051980E-04
(PID.TID 0000.0001) %MON dynstat_vvel_del2            =   6.4627999032783E-07
(PID.TID 0000.0001) %MON dynstat_wvel_max             =   6.4223126850512E-04
(PID.TID 0000.0001) %MON dynstat_wvel_min             =  -6.3278579126753E-04
(PID.TID 0000.0001) %MON dynstat_wvel_mean            =   6.5159381148749E-09
(PID.TID 0000.0001) %MON dynstat_wvel_sd              =   1.5478130822659E-05
(PID.TID 0000.0001) %MON dynstat_wvel_del2            =   6.3298111208468E-08
(PID.TID 0000.0001) %MON dynstat_theta_max            =   1.2000000000000E+00
(PID.TID 0000.0001) %MON dynstat_theta_min            =  -1.0000000000000E+00
(PID.TID 0000.0001) %MON dynstat_theta_mean           =   5.6883341329661E-01
(PID.TID 0000.0001) %MON dynstat_theta_sd             =   8.6843817267512E-01
(PID.TID 0000.0001) %MON dynstat_theta_del2           =   2.0430421561188E-06
(PID.TID 0000.0001) %MON dynstat_salt_max             =   3.4700000000000E+01
(PID.TID 0000.0001) %MON dynstat_salt_min             =   3.4000000000000E+01
(PID.TID 0000.0001) %MON dynstat_salt_mean            =   3.4499147541810E+01
(PID.TID 0000.0001) %MON dynstat_salt_sd              =   2.7631183379066E-01
(PID.TID 0000.0001) %MON dynstat_salt_del2            =   8.0282966677000E-07
(PID.TID 0000.0001) %MON advcfl_uvel_max              =   1.6673309450290E-03
(PID.TID 0000.0001) %MON advcfl_vvel_max              =   1.3383409856539E-03
(PID.TID 0000.0001) %MON advcfl_wvel_max              =   3.2111563425256E-03
(PID.TID 0000.0001) %MON advcfl_W_hf_max              =   3.2111563425256E-03
(PID.TID 0000.0001) %MON pe_b_mean                    =  -8.3078102691998E-01
(PID.TID 0000.0001) %MON ke_max                       =   8.8785785164671E-05
(PID.TID 0000.0001) %MON ke_mean                      =   1.7054214253750E-07
(PID.TID 0000.0001) %MON ke_vol                       =   4.2724881884876E+12
(PID.TID 0000.0001) // =======================================================
(PID.TID 0000.0001) // End MONITOR dynamic field statistics
(PID.TID 0000.0001) // =======================================================
(PID.TID 0000.0001) // =======================================================
(PID.TID 0000.0001) // Begin OBCS MONITOR field statistics
(PID.TID 0000.0001) // =======================================================
(PID.TID 0000.0001) %MON obc_N_vVel_max               =   1.4748314089243E-05
(PID.TID 0000.0001) %MON obc_N_vVel_min               =   1.4748314089243E-05
(PID.TID 0000.0001) %MON obc_N_vVel_mean              =   1.4748314089243E-05
(PID.TID 0000.0001) %MON obc_N_vVel_sd                =  -1.0856745539758E-23
(PID.TID 0000.0001) %MON obc_N_vVel_Int               =   9.7338872989006E+02
(PID.TID 0000.0001) // =======================================================
(PID.TID 0000.0001) // End OBCS MONITOR field statistics
(PID.TID 0000.0001) // =======================================================
 cg2d: Sum(rhs),rhsMax =   4.51384046133932E+00  2.99924842106944E+02
(PID.TID 0000.0001)      cg2d_init_res =   6.16227070743978E-06
(PID.TID 0000.0001)      cg2d_iters(min,last) =      -1      80
(PID.TID 0000.0001)      cg2d_last_res =   9.93173745905226E-12
(PID.TID 0000.0001) // =======================================================
(PID.TID 0000.0001) // Begin MONITOR dynamic field statistics
(PID.TID 0000.0001) // =======================================================
(PID.TID 0000.0001) %MON time_tsnumber                =                   925
(PID.TID 0000.0001) %MON time_secondsf                =   9.2500000000000E+04
(PID.TID 0000.0001) %MON dynstat_eta_max              =   5.7960000501692E+00
(PID.TID 0000.0001) %MON dynstat_eta_min              =  -1.4197589396742E+01
(PID.TID 0000.0001) %MON dynstat_eta_mean             =  -2.5070609030799E+00
(PID.TID 0000.0001) %MON dynstat_eta_sd               =   4.9509683229108E+00
(PID.TID 0000.0001) %MON dynstat_eta_del2             =   2.0714738605630E-01
(PID.TID 0000.0001) %MON dynstat_uvel_max             =   3.7494895927104E-03
(PID.TID 0000.0001) %MON dynstat_uvel_min             =  -1.6716505795216E-02
(PID.TID 0000.0001) %MON dynstat_uvel_mean            =  -1.1478447046265E-07
(PID.TID 0000.0001) %MON dynstat_uvel_sd              =   4.9484258213452E-04
(PID.TID 0000.0001) %MON dynstat_uvel_del2            =   7.5560823044510E-07
(PID.TID 0000.0001) %MON dynstat_vvel_max             =   1.3416590671410E-02
(PID.TID 0000.0001) %MON dynstat_vvel_min             =  -5.9432436937801E-03
(PID.TID 0000.0001) %MON dynstat_vvel_mean            =   1.4945699828770E-05
(PID.TID 0000.0001) %MON dynstat_vvel_sd              =   3.2033116594436E-04
(PID.TID 0000.0001) %MON dynstat_vvel_del2            =   6.4756075046337E-07
(PID.TID 0000.0001) %MON dynstat_wvel_max             =   6.4410419109581E-04
(PID.TID 0000.0001) %MON dynstat_wvel_min             =  -6.3453491270618E-04
(PID.TID 0000.0001) %MON dynstat_wvel_mean            =   6.4745805624269E-09
(PID.TID 0000.0001) %MON dynstat_wvel_sd              =   1.5625373664755E-05
(PID.TID 0000.0001) %MON dynstat_wvel_del2            =   6.3707624256954E-08
(PID.TID 0000.0001) %MON dynstat_theta_max            =   1.2000000000000E+00
(PID.TID 0000.0001) %MON dynstat_theta_min            =  -1.0000000000000E+00
(PID.TID 0000.0001) %MON dynstat_theta_mean           =   5.6883276800739E-01
(PID.TID 0000.0001) %MON dynstat_theta_sd             =   8.6843782170322E-01
(PID.TID 0000.0001) %MON dynstat_theta_del2           =   2.0470748358962E-06
(PID.TID 0000.0001) %MON dynstat_salt_max             =   3.4700000000000E+01
(PID.TID 0000.0001) %MON dynstat_salt_min             =   3.4000000000000E+01
(PID.TID 0000.0001) %MON dynstat_salt_mean            =   3.4499147283728E+01
(PID.TID 0000.0001) %MON dynstat_salt_sd              =   2.7631169929120E-01
(PID.TID 0000.0001) %MON dynstat_salt_del2            =   8.0446922169035E-07
(PID.TID 0000.0001) %MON advcfl_uvel_max              =   1.6716505795216E-03
(PID.TID 0000.0001) %MON advcfl_vvel_max              =   1.3416590671410E-03
(PID.TID 0000.0001) %MON advcfl_wvel_max              =   3.2205209554790E-03
(PID.TID 0000.0001) %MON advcfl_W_hf_max              =   3.2205209554790E-03
(PID.TID 0000.0001) %MON pe_b_mean                    =  -8.3078398135214E-01
(PID.TID 0000.0001) %MON ke_max                       =   8.9339892045943E-05
(PID.TID 0000.0001) %MON ke_mean                      =   1.7142133725034E-07
(PID.TID 0000.0001) %MON ke_vol                       =   4.2724881232150E+12
(PID.TID 0000.0001) // =======================================================
(PID.TID 0000.0001) // End MONITOR dynamic field statistics
(PID.TID 0000.0001) // =======================================================
(PID.TID 0000.0001) // =======================================================
(PID.TID 0000.0001) // Begin OBCS MONITOR field statistics
(PID.TID 0000.0001) // =======================================================
(PID.TID 0000.0001) %MON obc_N_vVel_max               =   1.4714133510827E-05
(PID.TID 0000.0001) %MON obc_N_vVel_min               =   1.4714133510827E-05
(PID.TID 0000.0001) %MON obc_N_vVel_mean              =   1.4714133510827E-05
(PID.TID 0000.0001) %MON obc_N_vVel_sd                =   2.3243328883224E-12
(PID.TID 0000.0001) %MON obc_N_vVel_Int               =   9.7113281171460E+02
(PID.TID 0000.0001) // =======================================================
(PID.TID 0000.0001) // End OBCS MONITOR field statistics
(PID.TID 0000.0001) // =======================================================
 cg2d: Sum(rhs),rhsMax =   4.51385907948532E+00  2.99924907723044E+02
(PID.TID 0000.0001)      cg2d_init_res =   6.14251066895079E-06
(PID.TID 0000.0001)      cg2d_iters(min,last) =      -1      80
(PID.TID 0000.0001)      cg2d_last_res =   9.94202281167989E-12
(PID.TID 0000.0001) // =======================================================
(PID.TID 0000.0001) // Begin MONITOR dynamic field statistics
(PID.TID 0000.0001) // =======================================================
(PID.TID 0000.0001) %MON time_tsnumber                =                   926
(PID.TID 0000.0001) %MON time_secondsf                =   9.2600000000000E+04
(PID.TID 0000.0001) %MON dynstat_eta_max              =   5.7959955101371E+00
(PID.TID 0000.0001) %MON dynstat_eta_min              =  -1.4197611356033E+01
(PID.TID 0000.0001) %MON dynstat_eta_mean             =  -2.5070717923879E+00
(PID.TID 0000.0001) %MON dynstat_eta_sd               =   4.9509720885548E+00
(PID.TID 0000.0001) %MON dynstat_eta_del2             =   2.0714740881848E-01
(PID.TID 0000.0001) %MON dynstat_uvel_max             =   3.7594751638572E-03
(PID.TID 0000.0001) %MON dynstat_uvel_min             =  -1.6759773150412E-02
(PID.TID 0000.0001) %MON dynstat_uvel_mean            =  -1.1479015785227E-07
(PID.TID 0000.0001) %MON dynstat_uvel_sd              =   4.9613074393923E-04
(PID.TID 0000.0001) %MON dynstat_uvel_del2            =   7.5725373872783E-07
(PID.TID 0000.0001) %MON dynstat_vvel_max             =   1.3449825107214E-02
(PID.TID 0000.0001) %MON dynstat_vvel_min             =  -5.9543798352797E-03
(PID.TID 0000.0001) %MON dynstat_vvel_mean            =   1.4907710377100E-05
(PID.TID 0000.0001) %MON dynstat_vvel_sd              =   3.2114444657031E-04
(PID.TID 0000.0001) %MON dynstat_vvel_del2            =   6.4886006610873E-07
(PID.TID 0000.0001) %MON dynstat_wvel_max             =   6.4598115280322E-04
(PID.TID 0000.0001) %MON dynstat_wvel_min             =  -6.3628799652621E-04
(PID.TID 0000.0001) %MON dynstat_wvel_mean            =   6.4340177466951E-09
(PID.TID 0000.0001) %MON dynstat_wvel_sd              =   1.5789379427088E-05
(PID.TID 0000.0001) %MON dynstat_wvel_del2            =   6.4199802544438E-08
(PID.TID 0000.0001) %MON dynstat_theta_max            =   1.2000000000000E+00
(PID.TID 0000.0001) %MON dynstat_theta_min            =  -1.0000000000000E+00
(PID.TID 0000.0001) %MON dynstat_theta_mean           =   5.6883212133027E-01
(PID.TID 0000.0001) %MON dynstat_theta_sd             =   8.6843746999671E-01
(PID.TID 0000.0001) %MON dynstat_theta_del2           =   2.0511051575283E-06
(PID.TID 0000.0001) %MON dynstat_salt_max             =   3.4700000000000E+01
(PID.TID 0000.0001) %MON dynstat_salt_min             =   3.4000000000000E+01
(PID.TID 0000.0001) %MON dynstat_salt_mean            =   3.4499147025093E+01
(PID.TID 0000.0001) %MON dynstat_salt_sd              =   2.7631156450568E-01
(PID.TID 0000.0001) %MON dynstat_salt_del2            =   8.0611081764981E-07
(PID.TID 0000.0001) %MON advcfl_uvel_max              =   1.6759773150412E-03
(PID.TID 0000.0001) %MON advcfl_vvel_max              =   1.3449825107214E-03
(PID.TID 0000.0001) %MON advcfl_wvel_max              =   3.2299057640161E-03
(PID.TID 0000.0001) %MON advcfl_W_hf_max              =   3.2299057640161E-03
(PID.TID 0000.0001) %MON pe_b_mean                    =  -8.3078692203711E-01
(PID.TID 0000.0001) %MON ke_max                       =   8.9897092131943E-05
(PID.TID 0000.0001) %MON ke_mean                      =   1.7230722306067E-07
(PID.TID 0000.0001) %MON ke_vol                       =   4.2724880582357E+12
(PID.TID 0000.0001) // =======================================================
(PID.TID 0000.0001) // End MONITOR dynamic field statistics
(PID.TID 0000.0001) // =======================================================
(PID.TID 0000.0001) // =======================================================
(PID.TID 0000.0001) // Begin OBCS MONITOR field statistics
(PID.TID 0000.0001) // =======================================================
(PID.TID 0000.0001) %MON obc_N_vVel_max               =   1.4679419343677E-05
(PID.TID 0000.0001) %MON obc_N_vVel_min               =   1.4679419343676E-05
(PID.TID 0000.0001) %MON obc_N_vVel_mean              =   1.4679419343676E-05
(PID.TID 0000.0001) %MON obc_N_vVel_sd                =   3.7361307306935E-12
(PID.TID 0000.0001) %MON obc_N_vVel_Int               =   9.6884167668264E+02
(PID.TID 0000.0001) // =======================================================
(PID.TID 0000.0001) // End OBCS MONITOR field statistics
(PID.TID 0000.0001) // =======================================================
 cg2d: Sum(rhs),rhsMax =   4.51387761764001E+00  2.99924972623686E+02
(PID.TID 0000.0001)      cg2d_init_res =   6.12390639094065E-06
(PID.TID 0000.0001)      cg2d_iters(min,last) =      -1      80
(PID.TID 0000.0001)      cg2d_last_res =   9.95411252221838E-12
(PID.TID 0000.0001) // =======================================================
(PID.TID 0000.0001) // Begin MONITOR dynamic field statistics
(PID.TID 0000.0001) // =======================================================
(PID.TID 0000.0001) %MON time_tsnumber                =                   927
(PID.TID 0000.0001) %MON time_secondsf                =   9.2700000000000E+04
(PID.TID 0000.0001) %MON dynstat_eta_max              =   5.7959910750987E+00
(PID.TID 0000.0001) %MON dynstat_eta_min              =  -1.4197633235118E+01
(PID.TID 0000.0001) %MON dynstat_eta_mean             =  -2.5070826312914E+00
(PID.TID 0000.0001) %MON dynstat_eta_sd               =   4.9509758380877E+00
(PID.TID 0000.0001) %MON dynstat_eta_del2             =   2.0714743162109E-01
(PID.TID 0000.0001) %MON dynstat_uvel_max             =   3.7694819403207E-03
(PID.TID 0000.0001) %MON dynstat_uvel_min             =  -1.6803111445995E-02
(PID.TID 0000.0001) %MON dynstat_uvel_mean            =  -1.1480462576512E-07
(PID.TID 0000.0001) %MON dynstat_uvel_sd              =   4.9742168312005E-04
(PID.TID 0000.0001) %MON dynstat_uvel_del2            =   7.5890405764575E-07
(PID.TID 0000.0001) %MON dynstat_vvel_max             =   1.3483113164681E-02
(PID.TID 0000.0001) %MON dynstat_vvel_min             =  -5.9655286377698E-03
(PID.TID 0000.0001) %MON dynstat_vvel_mean            =   1.4869409864906E-05
(PID.TID 0000.0001) %MON dynstat_vvel_sd              =   3.2196521818326E-04
(PID.TID 0000.0001) %MON dynstat_vvel_del2            =   6.5016948672468E-07
(PID.TID 0000.0001) %MON dynstat_wvel_max             =   6.4786215602823E-04
(PID.TID 0000.0001) %MON dynstat_wvel_min             =  -6.3804504608927E-04
(PID.TID 0000.0001) %MON dynstat_wvel_mean            =   6.3944852818834E-09
(PID.TID 0000.0001) %MON dynstat_wvel_sd              =   1.5964816388987E-05
(PID.TID 0000.0001) %MON dynstat_wvel_del2            =   6.4738861772477E-08
(PID.TID 0000.0001) %MON dynstat_theta_max            =   1.2000000000000E+00
(PID.TID 0000.0001) %MON dynstat_theta_min            =  -1.0000000000000E+00
(PID.TID 0000.0001) %MON dynstat_theta_mean           =   5.6883147326959E-01
(PID.TID 0000.0001) %MON dynstat_theta_sd             =   8.6843711753533E-01
(PID.TID 0000.0001) %MON dynstat_theta_del2           =   2.0551468268874E-06
(PID.TID 0000.0001) %MON dynstat_salt_max             =   3.4700000000000E+01
(PID.TID 0000.0001) %MON dynstat_salt_min             =   3.4000000000000E+01
(PID.TID 0000.0001) %MON dynstat_salt_mean            =   3.4499146765906E+01
(PID.TID 0000.0001) %MON dynstat_salt_sd              =   2.7631142942738E-01
(PID.TID 0000.0001) %MON dynstat_salt_del2            =   8.0775769596689E-07
(PID.TID 0000.0001) %MON advcfl_uvel_max              =   1.6803111445995E-03
(PID.TID 0000.0001) %MON advcfl_vvel_max              =   1.3483113164681E-03
(PID.TID 0000.0001) %MON advcfl_wvel_max              =   3.2393107801412E-03
(PID.TID 0000.0001) %MON advcfl_W_hf_max              =   3.2393107801412E-03
(PID.TID 0000.0001) %MON pe_b_mean                    =  -8.3078984890527E-01
(PID.TID 0000.0001) %MON ke_max                       =   9.0457399381085E-05
(PID.TID 0000.0001) %MON ke_mean                      =   1.7319915932761E-07
(PID.TID 0000.0001) %MON ke_vol                       =   4.2724879935532E+12
(PID.TID 0000.0001) // =======================================================
(PID.TID 0000.0001) // End MONITOR dynamic field statistics
(PID.TID 0000.0001) // =======================================================
(PID.TID 0000.0001) // =======================================================
(PID.TID 0000.0001) // Begin OBCS MONITOR field statistics
(PID.TID 0000.0001) // =======================================================
(PID.TID 0000.0001) %MON obc_N_vVel_max               =   1.4644331083662E-05
(PID.TID 0000.0001) %MON obc_N_vVel_min               =   1.4644331083661E-05
(PID.TID 0000.0001) %MON obc_N_vVel_mean              =   1.4644331083662E-05
(PID.TID 0000.0001) %MON obc_N_vVel_sd                =  -1.6078323156499E-23
(PID.TID 0000.0001) %MON obc_N_vVel_Int               =   9.6652585152167E+02
(PID.TID 0000.0001) // =======================================================
(PID.TID 0000.0001) // End OBCS MONITOR field statistics
(PID.TID 0000.0001) // =======================================================
 cg2d: Sum(rhs),rhsMax =   4.51389607482807E+00  2.99925036844184E+02
(PID.TID 0000.0001)      cg2d_init_res =   6.10630608307438E-06
(PID.TID 0000.0001)      cg2d_iters(min,last) =      -1      80
(PID.TID 0000.0001)      cg2d_last_res =   9.96784433823211E-12
(PID.TID 0000.0001) // =======================================================
(PID.TID 0000.0001) // Begin MONITOR dynamic field statistics
(PID.TID 0000.0001) // =======================================================
(PID.TID 0000.0001) %MON time_tsnumber                =                   928
(PID.TID 0000.0001) %MON time_secondsf                =   9.2800000000000E+04
(PID.TID 0000.0001) %MON dynstat_eta_max              =   5.7959867453462E+00
(PID.TID 0000.0001) %MON dynstat_eta_min              =  -1.4197655033779E+01
(PID.TID 0000.0001) %MON dynstat_eta_mean             =  -2.5070934195438E+00
(PID.TID 0000.0001) %MON dynstat_eta_sd               =   4.9509795715881E+00
(PID.TID 0000.0001) %MON dynstat_eta_del2             =   2.0714745446427E-01
(PID.TID 0000.0001) %MON dynstat_uvel_max             =   3.7795099386919E-03
(PID.TID 0000.0001) %MON dynstat_uvel_min             =  -1.6846520611779E-02
(PID.TID 0000.0001) %MON dynstat_uvel_mean            =  -1.1482828290391E-07
(PID.TID 0000.0001) %MON dynstat_uvel_sd              =   4.9871544048318E-04
(PID.TID 0000.0001) %MON dynstat_uvel_del2            =   7.6055922510953E-07
(PID.TID 0000.0001) %MON dynstat_vvel_max             =   1.3516454844824E-02
(PID.TID 0000.0001) %MON dynstat_vvel_min             =  -5.9766900981382E-03
(PID.TID 0000.0001) %MON dynstat_vvel_mean            =   1.4830984106646E-05
(PID.TID 0000.0001) %MON dynstat_vvel_sd              =   3.2279115201969E-04
(PID.TID 0000.0001) %MON dynstat_vvel_del2            =   6.5147969104852E-07
(PID.TID 0000.0001) %MON dynstat_wvel_max             =   6.4974720314792E-04
(PID.TID 0000.0001) %MON dynstat_wvel_min             =  -6.3980606482219E-04
(PID.TID 0000.0001) %MON dynstat_wvel_mean            =   6.3562185948998E-09
(PID.TID 0000.0001) %MON dynstat_wvel_sd              =   1.6145911849922E-05
(PID.TID 0000.0001) %MON dynstat_wvel_del2            =   6.5285486529908E-08
(PID.TID 0000.0001) %MON dynstat_theta_max            =   1.2000000000000E+00
(PID.TID 0000.0001) %MON dynstat_theta_min            =  -1.0000000000000E+00
(PID.TID 0000.0001) %MON dynstat_theta_mean           =   5.6883082382955E-01
(PID.TID 0000.0001) %MON dynstat_theta_sd             =   8.6843676430429E-01
(PID.TID 0000.0001) %MON dynstat_theta_del2           =   2.0592123981757E-06
(PID.TID 0000.0001) %MON dynstat_salt_max             =   3.4700000000000E+01
(PID.TID 0000.0001) %MON dynstat_salt_min             =   3.4000000000000E+01
(PID.TID 0000.0001) %MON dynstat_salt_mean            =   3.4499146506166E+01
(PID.TID 0000.0001) %MON dynstat_salt_sd              =   2.7631129405157E-01
(PID.TID 0000.0001) %MON dynstat_salt_del2            =   8.0941331265160E-07
(PID.TID 0000.0001) %MON advcfl_uvel_max              =   1.6846520611779E-03
(PID.TID 0000.0001) %MON advcfl_vvel_max              =   1.3516454844824E-03
(PID.TID 0000.0001) %MON advcfl_wvel_max              =   3.2487360157396E-03
(PID.TID 0000.0001) %MON advcfl_W_hf_max              =   3.2487360157396E-03
(PID.TID 0000.0001) %MON pe_b_mean                    =  -8.3079276193527E-01
(PID.TID 0000.0001) %MON ke_max                       =   9.1020827794396E-05
(PID.TID 0000.0001) %MON ke_mean                      =   1.7409644611676E-07
(PID.TID 0000.0001) %MON ke_vol                       =   4.2724879291701E+12
(PID.TID 0000.0001) // =======================================================
(PID.TID 0000.0001) // End MONITOR dynamic field statistics
(PID.TID 0000.0001) // =======================================================
(PID.TID 0000.0001) // =======================================================
(PID.TID 0000.0001) // Begin OBCS MONITOR field statistics
(PID.TID 0000.0001) // =======================================================
(PID.TID 0000.0001) %MON obc_N_vVel_max               =   1.4609035567492E-05
(PID.TID 0000.0001) %MON obc_N_vVel_min               =   1.4609035567491E-05
(PID.TID 0000.0001) %MON obc_N_vVel_mean              =   1.4609035567491E-05
(PID.TID 0000.0001) %MON obc_N_vVel_sd                =   3.0378008013684E-12
(PID.TID 0000.0001) %MON obc_N_vVel_Int               =   9.6419634745444E+02
(PID.TID 0000.0001) // =======================================================
(PID.TID 0000.0001) // End OBCS MONITOR field statistics
(PID.TID 0000.0001) // =======================================================
 cg2d: Sum(rhs),rhsMax =   4.51391445034839E+00  2.99925100424452E+02
(PID.TID 0000.0001)      cg2d_init_res =   6.08953341911169E-06
(PID.TID 0000.0001)      cg2d_iters(min,last) =      -1      80
(PID.TID 0000.0001)      cg2d_last_res =   9.98312293111400E-12
(PID.TID 0000.0001) // =======================================================
(PID.TID 0000.0001) // Begin MONITOR dynamic field statistics
(PID.TID 0000.0001) // =======================================================
(PID.TID 0000.0001) %MON time_tsnumber                =                   929
(PID.TID 0000.0001) %MON time_secondsf                =   9.2900000000000E+04
(PID.TID 0000.0001) %MON dynstat_eta_max              =   5.7959825208294E+00
(PID.TID 0000.0001) %MON dynstat_eta_min              =  -1.4197676752127E+01
(PID.TID 0000.0001) %MON dynstat_eta_mean             =  -2.5071041570891E+00
(PID.TID 0000.0001) %MON dynstat_eta_sd               =   4.9509832892044E+00
(PID.TID 0000.0001) %MON dynstat_eta_del2             =   2.0714747734839E-01
(PID.TID 0000.0001) %MON dynstat_uvel_max             =   3.7895591755124E-03
(PID.TID 0000.0001) %MON dynstat_uvel_min             =  -1.6890000576844E-02
(PID.TID 0000.0001) %MON dynstat_uvel_mean            =  -1.1486146856225E-07
(PID.TID 0000.0001) %MON dynstat_uvel_sd              =   5.0001205716725E-04
(PID.TID 0000.0001) %MON dynstat_uvel_del2            =   7.6221927509681E-07
(PID.TID 0000.0001) %MON dynstat_vvel_max             =   1.3549850148995E-02
(PID.TID 0000.0001) %MON dynstat_vvel_min             =  -5.9878642123623E-03
(PID.TID 0000.0001) %MON dynstat_vvel_mean            =   1.4792625309507E-05
(PID.TID 0000.0001) %MON dynstat_vvel_sd              =   3.2361983360523E-04
(PID.TID 0000.0001) %MON dynstat_vvel_del2            =   6.5278151404529E-07
(PID.TID 0000.0001) %MON dynstat_wvel_max             =   6.5163629652046E-04
(PID.TID 0000.0001) %MON dynstat_wvel_min             =  -6.4157105624932E-04
(PID.TID 0000.0001) %MON dynstat_wvel_mean            =   6.3194518939416E-09
(PID.TID 0000.0001) %MON dynstat_wvel_sd              =   1.6326865436237E-05
(PID.TID 0000.0001) %MON dynstat_wvel_del2            =   6.5800863122716E-08
(PID.TID 0000.0001) %MON dynstat_theta_max            =   1.2000000000000E+00
(PID.TID 0000.0001) %MON dynstat_theta_min            =  -1.0000000000000E+00
(PID.TID 0000.0001) %MON dynstat_theta_mean           =   5.6883017301386E-01
(PID.TID 0000.0001) %MON dynstat_theta_sd             =   8.6843641030290E-01
(PID.TID 0000.0001) %MON dynstat_theta_del2           =   2.0633151046459E-06
(PID.TID 0000.0001) %MON dynstat_salt_max             =   3.4700000000000E+01
(PID.TID 0000.0001) %MON dynstat_salt_min             =   3.4000000000000E+01
(PID.TID 0000.0001) %MON dynstat_salt_mean            =   3.4499146245877E+01
(PID.TID 0000.0001) %MON dynstat_salt_sd              =   2.7631115837779E-01
(PID.TID 0000.0001) %MON dynstat_salt_del2            =   8.1108105123791E-07
(PID.TID 0000.0001) %MON advcfl_uvel_max              =   1.6890000576844E-03
(PID.TID 0000.0001) %MON advcfl_vvel_max              =   1.3549850148995E-03
(PID.TID 0000.0001) %MON advcfl_wvel_max              =   3.2581814826023E-03
(PID.TID 0000.0001) %MON advcfl_W_hf_max              =   3.2581814826023E-03
(PID.TID 0000.0001) %MON pe_b_mean                    =  -8.3079566115517E-01
(PID.TID 0000.0001) %MON ke_max                       =   9.1587391414839E-05
(PID.TID 0000.0001) %MON ke_mean                      =   1.7499834863346E-07
(PID.TID 0000.0001) %MON ke_vol                       =   4.2724878650879E+12
(PID.TID 0000.0001) // =======================================================
(PID.TID 0000.0001) // End MONITOR dynamic field statistics
(PID.TID 0000.0001) // =======================================================
(PID.TID 0000.0001) // =======================================================
(PID.TID 0000.0001) // Begin OBCS MONITOR field statistics
(PID.TID 0000.0001) // =======================================================
(PID.TID 0000.0001) %MON obc_N_vVel_max               =   1.4573705991051E-05
(PID.TID 0000.0001) %MON obc_N_vVel_min               =   1.4573705991051E-05
(PID.TID 0000.0001) %MON obc_N_vVel_mean              =   1.4573705991051E-05
(PID.TID 0000.0001) %MON obc_N_vVel_sd                =  -7.8323664251115E-24
(PID.TID 0000.0001) %MON obc_N_vVel_Int               =   9.6186459540939E+02
(PID.TID 0000.0001) // =======================================================
(PID.TID 0000.0001) // End OBCS MONITOR field statistics
(PID.TID 0000.0001) // =======================================================
 cg2d: Sum(rhs),rhsMax =   4.51393274377482E+00  2.99925163409165E+02
(PID.TID 0000.0001)      cg2d_init_res =   6.07325708100851E-06
(PID.TID 0000.0001)      cg2d_iters(min,last) =      -1      80
(PID.TID 0000.0001)      cg2d_last_res =   9.99953314398579E-12
(PID.TID 0000.0001) // =======================================================
(PID.TID 0000.0001) // Begin MONITOR dynamic field statistics
(PID.TID 0000.0001) // =======================================================
(PID.TID 0000.0001) %MON time_tsnumber                =                   930
(PID.TID 0000.0001) %MON time_secondsf                =   9.3000000000000E+04
(PID.TID 0000.0001) %MON dynstat_eta_max              =   5.7959784011317E+00
(PID.TID 0000.0001) %MON dynstat_eta_min              =  -1.4197698390624E+01
(PID.TID 0000.0001) %MON dynstat_eta_mean             =  -2.5071148440642E+00
(PID.TID 0000.0001) %MON dynstat_eta_sd               =   4.9509869911594E+00
(PID.TID 0000.0001) %MON dynstat_eta_del2             =   2.0714750027399E-01
(PID.TID 0000.0001) %MON dynstat_uvel_max             =   3.7996296673413E-03
(PID.TID 0000.0001) %MON dynstat_uvel_min             =  -1.6933551269815E-02
(PID.TID 0000.0001) %MON dynstat_uvel_mean            =  -1.1490444977718E-07
(PID.TID 0000.0001) %MON dynstat_uvel_sd              =   5.0131157417235E-04
(PID.TID 0000.0001) %MON dynstat_uvel_del2            =   7.6388423692927E-07
(PID.TID 0000.0001) %MON dynstat_vvel_max             =   1.3583299078785E-02
(PID.TID 0000.0001) %MON dynstat_vvel_min             =  -5.9990509757002E-03
(PID.TID 0000.0001) %MON dynstat_vvel_mean            =   1.4754531019948E-05
(PID.TID 0000.0001) %MON dynstat_vvel_sd              =   3.2444884362269E-04
(PID.TID 0000.0001) %MON dynstat_vvel_del2            =   6.5406694671061E-07
(PID.TID 0000.0001) %MON dynstat_wvel_max             =   6.5352943849203E-04
(PID.TID 0000.0001) %MON dynstat_wvel_min             =  -6.4334002380150E-04
(PID.TID 0000.0001) %MON dynstat_wvel_mean            =   6.2844181370387E-09
(PID.TID 0000.0001) %MON dynstat_wvel_sd              =   1.6502222418265E-05
(PID.TID 0000.0001) %MON dynstat_wvel_del2            =   6.6250305996753E-08
(PID.TID 0000.0001) %MON dynstat_theta_max            =   1.2000000000000E+00
(PID.TID 0000.0001) %MON dynstat_theta_min            =  -1.0000000000000E+00
(PID.TID 0000.0001) %MON dynstat_theta_mean           =   5.6882952082509E-01
(PID.TID 0000.0001) %MON dynstat_theta_sd             =   8.6843605553814E-01
(PID.TID 0000.0001) %MON dynstat_theta_del2           =   2.0674669384503E-06
(PID.TID 0000.0001) %MON dynstat_salt_max             =   3.4700000000000E+01
(PID.TID 0000.0001) %MON dynstat_salt_min             =   3.4000000000000E+01
(PID.TID 0000.0001) %MON dynstat_salt_mean            =   3.4499145985037E+01
(PID.TID 0000.0001) %MON dynstat_salt_sd              =   2.7631102240821E-01
(PID.TID 0000.0001) %MON dynstat_salt_del2            =   8.1276396421281E-07
(PID.TID 0000.0001) %MON advcfl_uvel_max              =   1.6933551269815E-03
(PID.TID 0000.0001) %MON advcfl_vvel_max              =   1.3583299078785E-03
(PID.TID 0000.0001) %MON advcfl_wvel_max              =   3.2676471924601E-03
(PID.TID 0000.0001) %MON advcfl_W_hf_max              =   3.2676471924601E-03
(PID.TID 0000.0001) %MON pe_b_mean                    =  -8.3079854664300E-01
(PID.TID 0000.0001) %MON ke_max                       =   9.2157104326987E-05
(PID.TID 0000.0001) %MON ke_mean                      =   1.7590412276454E-07
(PID.TID 0000.0001) %MON ke_vol                       =   4.2724878013069E+12
(PID.TID 0000.0001) // =======================================================
(PID.TID 0000.0001) // End MONITOR dynamic field statistics
(PID.TID 0000.0001) // =======================================================
(PID.TID 0000.0001) // =======================================================
(PID.TID 0000.0001) // Begin OBCS MONITOR field statistics
(PID.TID 0000.0001) // =======================================================
(PID.TID 0000.0001) %MON obc_N_vVel_max               =   1.4538520894509E-05
(PID.TID 0000.0001) %MON obc_N_vVel_min               =   1.4538520894509E-05
(PID.TID 0000.0001) %MON obc_N_vVel_mean              =   1.4538520894509E-05
(PID.TID 0000.0001) %MON obc_N_vVel_sd                =   1.0040549644063E-12
(PID.TID 0000.0001) %MON obc_N_vVel_Int               =   9.5954237903763E+02
(PID.TID 0000.0001) // =======================================================
(PID.TID 0000.0001) // End OBCS MONITOR field statistics
(PID.TID 0000.0001) // =======================================================
 cg2d: Sum(rhs),rhsMax =   4.51395095499243E+00  2.99925225847493E+02
(PID.TID 0000.0001)      cg2d_init_res =   6.05747563827581E-06
(PID.TID 0000.0001)      cg2d_iters(min,last) =      -1      81
(PID.TID 0000.0001)      cg2d_last_res =   9.22280864077039E-12
(PID.TID 0000.0001) // =======================================================
(PID.TID 0000.0001) // Begin MONITOR dynamic field statistics
(PID.TID 0000.0001) // =======================================================
(PID.TID 0000.0001) %MON time_tsnumber                =                   931
(PID.TID 0000.0001) %MON time_secondsf                =   9.3100000000000E+04
(PID.TID 0000.0001) %MON dynstat_eta_max              =   5.7959743860537E+00
(PID.TID 0000.0001) %MON dynstat_eta_min              =  -1.4197719949460E+01
(PID.TID 0000.0001) %MON dynstat_eta_mean             =  -2.5071254808159E+00
(PID.TID 0000.0001) %MON dynstat_eta_sd               =   4.9509906777519E+00
(PID.TID 0000.0001) %MON dynstat_eta_del2             =   2.0714752324173E-01
(PID.TID 0000.0001) %MON dynstat_uvel_max             =   3.8097214339317E-03
(PID.TID 0000.0001) %MON dynstat_uvel_min             =  -1.6977172616315E-02
(PID.TID 0000.0001) %MON dynstat_uvel_mean            =  -1.1495778235666E-07
(PID.TID 0000.0001) %MON dynstat_uvel_sd              =   5.0261403188398E-04
(PID.TID 0000.0001) %MON dynstat_uvel_del2            =   7.6555413459775E-07
(PID.TID 0000.0001) %MON dynstat_vvel_max             =   1.3616801634231E-02
(PID.TID 0000.0001) %MON dynstat_vvel_min             =  -6.0102504020572E-03
(PID.TID 0000.0001) %MON dynstat_vvel_mean            =   1.4716903128375E-05
(PID.TID 0000.0001) %MON dynstat_vvel_sd              =   3.2527583549623E-04
(PID.TID 0000.0001) %MON dynstat_vvel_del2            =   6.5533001203310E-07
(PID.TID 0000.0001) %MON dynstat_wvel_max             =   6.5542663230631E-04
(PID.TID 0000.0001) %MON dynstat_wvel_min             =  -6.4511297349751E-04
(PID.TID 0000.0001) %MON dynstat_wvel_mean            =   6.2513400425459E-09
(PID.TID 0000.0001) %MON dynstat_wvel_sd              =   1.6667177762314E-05
(PID.TID 0000.0001) %MON dynstat_wvel_del2            =   6.6606184361677E-08
(PID.TID 0000.0001) %MON dynstat_theta_max            =   1.2000000000000E+00
(PID.TID 0000.0001) %MON dynstat_theta_min            =  -1.0000000000000E+00
(PID.TID 0000.0001) %MON dynstat_theta_mean           =   5.6882886726613E-01
(PID.TID 0000.0001) %MON dynstat_theta_sd             =   8.6843570001954E-01
(PID.TID 0000.0001) %MON dynstat_theta_del2           =   2.0716777362935E-06
(PID.TID 0000.0001) %MON dynstat_salt_max             =   3.4700000000000E+01
(PID.TID 0000.0001) %MON dynstat_salt_min             =   3.4000000000000E+01
(PID.TID 0000.0001) %MON dynstat_salt_mean            =   3.4499145723648E+01
(PID.TID 0000.0001) %MON dynstat_salt_sd              =   2.7631088614559E-01
(PID.TID 0000.0001) %MON dynstat_salt_del2            =   8.1446455469109E-07
(PID.TID 0000.0001) %MON advcfl_uvel_max              =   1.6977172616315E-03
(PID.TID 0000.0001) %MON advcfl_vvel_max              =   1.3616801634231E-03
(PID.TID 0000.0001) %MON advcfl_wvel_max              =   3.2771331615315E-03
(PID.TID 0000.0001) %MON advcfl_W_hf_max              =   3.2771331615315E-03
(PID.TID 0000.0001) %MON pe_b_mean                    =  -8.3080141853040E-01
(PID.TID 0000.0001) %MON ke_max                       =   9.2729980676455E-05
(PID.TID 0000.0001) %MON ke_mean                      =   1.7681304000651E-07
(PID.TID 0000.0001) %MON ke_vol                       =   4.2724877378263E+12
(PID.TID 0000.0001) // =======================================================
(PID.TID 0000.0001) // End MONITOR dynamic field statistics
(PID.TID 0000.0001) // =======================================================
(PID.TID 0000.0001) // =======================================================
(PID.TID 0000.0001) // Begin OBCS MONITOR field statistics
(PID.TID 0000.0001) // =======================================================
(PID.TID 0000.0001) %MON obc_N_vVel_max               =   1.4503663131854E-05
(PID.TID 0000.0001) %MON obc_N_vVel_min               =   1.4503663131853E-05
(PID.TID 0000.0001) %MON obc_N_vVel_mean              =   1.4503663131853E-05
(PID.TID 0000.0001) %MON obc_N_vVel_sd                =   1.6862483078275E-12
(PID.TID 0000.0001) %MON obc_N_vVel_Int               =   9.5724176670233E+02
(PID.TID 0000.0001) // =======================================================
(PID.TID 0000.0001) // End OBCS MONITOR field statistics
(PID.TID 0000.0001) // =======================================================
 cg2d: Sum(rhs),rhsMax =   4.51396908419455E+00  2.99925287792686E+02
(PID.TID 0000.0001)      cg2d_init_res =   6.04211077185592E-06
(PID.TID 0000.0001)      cg2d_iters(min,last) =      -1      81
(PID.TID 0000.0001)      cg2d_last_res =   9.23524714665455E-12
(PID.TID 0000.0001) // =======================================================
(PID.TID 0000.0001) // Begin MONITOR dynamic field statistics
(PID.TID 0000.0001) // =======================================================
(PID.TID 0000.0001) %MON time_tsnumber                =                   932
(PID.TID 0000.0001) %MON time_secondsf                =   9.3200000000000E+04
(PID.TID 0000.0001) %MON dynstat_eta_max              =   5.7959704733720E+00
(PID.TID 0000.0001) %MON dynstat_eta_min              =  -1.4197741431063E+01
(PID.TID 0000.0001) %MON dynstat_eta_mean             =  -2.5071360678969E+00
(PID.TID 0000.0001) %MON dynstat_eta_sd               =   4.9509943493219E+00
(PID.TID 0000.0001) %MON dynstat_eta_del2             =   2.0714754625179E-01
(PID.TID 0000.0001) %MON dynstat_uvel_max             =   3.8198344817175E-03
(PID.TID 0000.0001) %MON dynstat_uvel_min             =  -1.7020864550293E-02
(PID.TID 0000.0001) %MON dynstat_uvel_mean            =  -1.1502103569480E-07
(PID.TID 0000.0001) %MON dynstat_uvel_sd              =   5.0391946967791E-04
(PID.TID 0000.0001) %MON dynstat_uvel_del2            =   7.6722898636853E-07
(PID.TID 0000.0001) %MON dynstat_vvel_max             =   1.3650357821812E-02
(PID.TID 0000.0001) %MON dynstat_vvel_min             =  -6.0214624274444E-03
(PID.TID 0000.0001) %MON dynstat_vvel_mean            =   1.4679946262742E-05
(PID.TID 0000.0001) %MON dynstat_vvel_sd              =   3.2609860494621E-04
(PID.TID 0000.0001) %MON dynstat_vvel_del2            =   6.5656743199963E-07
(PID.TID 0000.0001) %MON dynstat_wvel_max             =   6.5732787756677E-04
(PID.TID 0000.0001) %MON dynstat_wvel_min             =  -6.4688990128807E-04
(PID.TID 0000.0001) %MON dynstat_wvel_mean            =   6.2204778410120E-09
(PID.TID 0000.0001) %MON dynstat_wvel_sd              =   1.6817793762440E-05
(PID.TID 0000.0001) %MON dynstat_wvel_del2            =   6.6849996131002E-08
(PID.TID 0000.0001) %MON dynstat_theta_max            =   1.2000000000000E+00
(PID.TID 0000.0001) %MON dynstat_theta_min            =  -1.0000000000000E+00
(PID.TID 0000.0001) %MON dynstat_theta_mean           =   5.6882821233919E-01
(PID.TID 0000.0001) %MON dynstat_theta_sd             =   8.6843534375411E-01
(PID.TID 0000.0001) %MON dynstat_theta_del2           =   2.0759545006370E-06
(PID.TID 0000.0001) %MON dynstat_salt_max             =   3.4700000000000E+01
(PID.TID 0000.0001) %MON dynstat_salt_min             =   3.4000000000000E+01
(PID.TID 0000.0001) %MON dynstat_salt_mean            =   3.4499145461711E+01
(PID.TID 0000.0001) %MON dynstat_salt_sd              =   2.7631074959225E-01
(PID.TID 0000.0001) %MON dynstat_salt_del2            =   8.1618458551302E-07
(PID.TID 0000.0001) %MON advcfl_uvel_max              =   1.7020864550293E-03
(PID.TID 0000.0001) %MON advcfl_vvel_max              =   1.3650357821812E-03
(PID.TID 0000.0001) %MON advcfl_wvel_max              =   3.2866393878339E-03
(PID.TID 0000.0001) %MON advcfl_W_hf_max              =   3.2866393878339E-03
(PID.TID 0000.0001) %MON pe_b_mean                    =  -8.3080427700228E-01
(PID.TID 0000.0001) %MON ke_max                       =   9.3306034564654E-05
(PID.TID 0000.0001) %MON ke_mean                      =   1.7772441024345E-07
(PID.TID 0000.0001) %MON ke_vol                       =   4.2724876746440E+12
(PID.TID 0000.0001) // =======================================================
(PID.TID 0000.0001) // End MONITOR dynamic field statistics
(PID.TID 0000.0001) // =======================================================
(PID.TID 0000.0001) // =======================================================
(PID.TID 0000.0001) // Begin OBCS MONITOR field statistics
(PID.TID 0000.0001) // =======================================================
(PID.TID 0000.0001) %MON obc_N_vVel_max               =   1.4469317727772E-05
(PID.TID 0000.0001) %MON obc_N_vVel_min               =   1.4469317727772E-05
(PID.TID 0000.0001) %MON obc_N_vVel_mean              =   1.4469317727772E-05
(PID.TID 0000.0001) %MON obc_N_vVel_sd                =  -1.7112298922191E-23
(PID.TID 0000.0001) %MON obc_N_vVel_Int               =   9.5497497003298E+02
(PID.TID 0000.0001) // =======================================================
(PID.TID 0000.0001) // End OBCS MONITOR field statistics
(PID.TID 0000.0001) // =======================================================
 cg2d: Sum(rhs),rhsMax =   4.51398713187752E+00  2.99925349303363E+02
(PID.TID 0000.0001)      cg2d_init_res =   6.02717086851608E-06
(PID.TID 0000.0001)      cg2d_iters(min,last) =      -1      81
(PID.TID 0000.0001)      cg2d_last_res =   9.24669799217980E-12
(PID.TID 0000.0001) // =======================================================
(PID.TID 0000.0001) // Begin MONITOR dynamic field statistics
(PID.TID 0000.0001) // =======================================================
(PID.TID 0000.0001) %MON time_tsnumber                =                   933
(PID.TID 0000.0001) %MON time_secondsf                =   9.3300000000000E+04
(PID.TID 0000.0001) %MON dynstat_eta_max              =   5.7959666621434E+00
(PID.TID 0000.0001) %MON dynstat_eta_min              =  -1.4197762836330E+01
(PID.TID 0000.0001) %MON dynstat_eta_mean             =  -2.5071466060727E+00
(PID.TID 0000.0001) %MON dynstat_eta_sd               =   4.9509980063043E+00
(PID.TID 0000.0001) %MON dynstat_eta_del2             =   2.0714756930484E-01
(PID.TID 0000.0001) %MON dynstat_uvel_max             =   3.8299688387902E-03
(PID.TID 0000.0001) %MON dynstat_uvel_min             =  -1.7064626991022E-02
(PID.TID 0000.0001) %MON dynstat_uvel_mean            =  -1.1509405317631E-07
(PID.TID 0000.0001) %MON dynstat_uvel_sd              =   5.0522792540888E-04
(PID.TID 0000.0001) %MON dynstat_uvel_del2            =   7.6890880445250E-07
(PID.TID 0000.0001) %MON dynstat_vvel_max             =   1.3683967638325E-02
(PID.TID 0000.0001) %MON dynstat_vvel_min             =  -6.0326871020582E-03
(PID.TID 0000.0001) %MON dynstat_vvel_mean            =   1.4643868039795E-05
(PID.TID 0000.0001) %MON dynstat_vvel_sd              =   3.2691514817700E-04
(PID.TID 0000.0001) %MON dynstat_vvel_del2            =   6.5777902441196E-07
(PID.TID 0000.0001) %MON dynstat_wvel_max             =   6.5923317901640E-04
(PID.TID 0000.0001) %MON dynstat_wvel_min             =  -6.4867081818540E-04
(PID.TID 0000.0001) %MON dynstat_wvel_mean            =   6.1920072986106E-09
(PID.TID 0000.0001) %MON dynstat_wvel_sd              =   1.6951124758734E-05
(PID.TID 0000.0001) %MON dynstat_wvel_del2            =   6.6973539551189E-08
(PID.TID 0000.0001) %MON dynstat_theta_max            =   1.2000000000000E+00
(PID.TID 0000.0001) %MON dynstat_theta_min            =  -1.0000000000000E+00
(PID.TID 0000.0001) %MON dynstat_theta_mean           =   5.6882755604575E-01
(PID.TID 0000.0001) %MON dynstat_theta_sd             =   8.6843498674938E-01
(PID.TID 0000.0001) %MON dynstat_theta_del2           =   2.0803008875887E-06
(PID.TID 0000.0001) %MON dynstat_salt_max             =   3.4700000000000E+01
(PID.TID 0000.0001) %MON dynstat_salt_min             =   3.4000000000000E+01
(PID.TID 0000.0001) %MON dynstat_salt_mean            =   3.4499145199225E+01
(PID.TID 0000.0001) %MON dynstat_salt_sd              =   2.7631061275043E-01
(PID.TID 0000.0001) %MON dynstat_salt_del2            =   8.1792498065976E-07
(PID.TID 0000.0001) %MON advcfl_uvel_max              =   1.7064626991022E-03
(PID.TID 0000.0001) %MON advcfl_vvel_max              =   1.3683967638325E-03
(PID.TID 0000.0001) %MON advcfl_wvel_max              =   3.2961658950820E-03
(PID.TID 0000.0001) %MON advcfl_W_hf_max              =   3.2961658950820E-03
(PID.TID 0000.0001) %MON pe_b_mean                    =  -8.3080712229634E-01
(PID.TID 0000.0001) %MON ke_max                       =   9.3885280247999E-05
(PID.TID 0000.0001) %MON ke_mean                      =   1.7863760116865E-07
(PID.TID 0000.0001) %MON ke_vol                       =   4.2724876117567E+12
(PID.TID 0000.0001) // =======================================================
(PID.TID 0000.0001) // End MONITOR dynamic field statistics
(PID.TID 0000.0001) // =======================================================
(PID.TID 0000.0001) // =======================================================
(PID.TID 0000.0001) // Begin OBCS MONITOR field statistics
(PID.TID 0000.0001) // =======================================================
(PID.TID 0000.0001) %MON obc_N_vVel_max               =   1.4435676482247E-05
(PID.TID 0000.0001) %MON obc_N_vVel_min               =   1.4435676482246E-05
(PID.TID 0000.0001) %MON obc_N_vVel_mean              =   1.4435676482247E-05
(PID.TID 0000.0001) %MON obc_N_vVel_sd                =  -1.4501510113820E-23
(PID.TID 0000.0001) %MON obc_N_vVel_Int               =   9.5275464782829E+02
(PID.TID 0000.0001) // =======================================================
(PID.TID 0000.0001) // End OBCS MONITOR field statistics
(PID.TID 0000.0001) // =======================================================
 cg2d: Sum(rhs),rhsMax =   4.51400509886908E+00  2.99925410440975E+02
(PID.TID 0000.0001)      cg2d_init_res =   6.01272779375190E-06
(PID.TID 0000.0001)      cg2d_iters(min,last) =      -1      81
(PID.TID 0000.0001)      cg2d_last_res =   9.25802201553290E-12
(PID.TID 0000.0001) // =======================================================
(PID.TID 0000.0001) // Begin MONITOR dynamic field statistics
(PID.TID 0000.0001) // =======================================================
(PID.TID 0000.0001) %MON time_tsnumber                =                   934
(PID.TID 0000.0001) %MON time_secondsf                =   9.3400000000000E+04
(PID.TID 0000.0001) %MON dynstat_eta_max              =   5.7959629505236E+00
(PID.TID 0000.0001) %MON dynstat_eta_min              =  -1.4197784167182E+01
(PID.TID 0000.0001) %MON dynstat_eta_mean             =  -2.5071570963166E+00
(PID.TID 0000.0001) %MON dynstat_eta_sd               =   4.9510016491975E+00
(PID.TID 0000.0001) %MON dynstat_eta_del2             =   2.0714759240153E-01
(PID.TID 0000.0001) %MON dynstat_uvel_max             =   3.8401245181738E-03
(PID.TID 0000.0001) %MON dynstat_uvel_min             =  -1.7108459866233E-02
(PID.TID 0000.0001) %MON dynstat_uvel_mean            =  -1.1517672722308E-07
(PID.TID 0000.0001) %MON dynstat_uvel_sd              =   5.0653943511056E-04
(PID.TID 0000.0001) %MON dynstat_uvel_del2            =   7.7059359528575E-07
(PID.TID 0000.0001) %MON dynstat_vvel_max             =   1.3717631086823E-02
(PID.TID 0000.0001) %MON dynstat_vvel_min             =  -6.0439244012409E-03
(PID.TID 0000.0001) %MON dynstat_vvel_mean            =   1.4608876356179E-05
(PID.TID 0000.0001) %MON dynstat_vvel_sd              =   3.2772370572473E-04
(PID.TID 0000.0001) %MON dynstat_vvel_del2            =   6.5896779518293E-07
(PID.TID 0000.0001) %MON dynstat_wvel_max             =   6.6114253824430E-04
(PID.TID 0000.0001) %MON dynstat_wvel_min             =  -6.5045572519587E-04
(PID.TID 0000.0001) %MON dynstat_wvel_mean            =   6.1661715996804E-09
(PID.TID 0000.0001) %MON dynstat_wvel_sd              =   1.7065250683788E-05
(PID.TID 0000.0001) %MON dynstat_wvel_del2            =   6.6979187714688E-08
(PID.TID 0000.0001) %MON dynstat_theta_max            =   1.2000000000000E+00
(PID.TID 0000.0001) %MON dynstat_theta_min            =  -1.0000000000000E+00
(PID.TID 0000.0001) %MON dynstat_theta_mean           =   5.6882689838647E-01
(PID.TID 0000.0001) %MON dynstat_theta_sd             =   8.6843462901169E-01
(PID.TID 0000.0001) %MON dynstat_theta_del2           =   2.0847173242256E-06
(PID.TID 0000.0001) %MON dynstat_salt_max             =   3.4700000000000E+01
(PID.TID 0000.0001) %MON dynstat_salt_min             =   3.4000000000000E+01
(PID.TID 0000.0001) %MON dynstat_salt_mean            =   3.4499144936191E+01
(PID.TID 0000.0001) %MON dynstat_salt_sd              =   2.7631047562182E-01
(PID.TID 0000.0001) %MON dynstat_salt_del2            =   8.1968579892008E-07
(PID.TID 0000.0001) %MON advcfl_uvel_max              =   1.7108459866233E-03
(PID.TID 0000.0001) %MON advcfl_vvel_max              =   1.3717631086823E-03
(PID.TID 0000.0001) %MON advcfl_wvel_max              =   3.3057126912215E-03
(PID.TID 0000.0001) %MON advcfl_W_hf_max              =   3.3057126912215E-03
(PID.TID 0000.0001) %MON pe_b_mean                    =  -8.3080995470390E-01
(PID.TID 0000.0001) %MON ke_max                       =   9.4467731951554E-05
(PID.TID 0000.0001) %MON ke_mean                      =   1.7955205338666E-07
(PID.TID 0000.0001) %MON ke_vol                       =   4.2724875491599E+12
(PID.TID 0000.0001) // =======================================================
(PID.TID 0000.0001) // End MONITOR dynamic field statistics
(PID.TID 0000.0001) // =======================================================
(PID.TID 0000.0001) // =======================================================
(PID.TID 0000.0001) // Begin OBCS MONITOR field statistics
(PID.TID 0000.0001) // =======================================================
(PID.TID 0000.0001) %MON obc_N_vVel_max               =   1.4402926503092E-05
(PID.TID 0000.0001) %MON obc_N_vVel_min               =   1.4402926503092E-05
(PID.TID 0000.0001) %MON obc_N_vVel_mean              =   1.4402926503092E-05
(PID.TID 0000.0001) %MON obc_N_vVel_sd                =  -9.8744685623518E-24
(PID.TID 0000.0001) %MON obc_N_vVel_Int               =   9.5059314920408E+02
(PID.TID 0000.0001) // =======================================================
(PID.TID 0000.0001) // End OBCS MONITOR field statistics
(PID.TID 0000.0001) // =======================================================
 cg2d: Sum(rhs),rhsMax =   4.51402298631166E+00  2.99925471271220E+02
(PID.TID 0000.0001)      cg2d_init_res =   5.99896281707883E-06
(PID.TID 0000.0001)      cg2d_iters(min,last) =      -1      81
(PID.TID 0000.0001)      cg2d_last_res =   9.26918569104621E-12
(PID.TID 0000.0001) // =======================================================
(PID.TID 0000.0001) // Begin MONITOR dynamic field statistics
(PID.TID 0000.0001) // =======================================================
(PID.TID 0000.0001) %MON time_tsnumber                =                   935
(PID.TID 0000.0001) %MON time_secondsf                =   9.3500000000000E+04
(PID.TID 0000.0001) %MON dynstat_eta_max              =   5.7959593363073E+00
(PID.TID 0000.0001) %MON dynstat_eta_min              =  -1.4197805425895E+01
(PID.TID 0000.0001) %MON dynstat_eta_mean             =  -2.5071675398123E+00
(PID.TID 0000.0001) %MON dynstat_eta_sd               =   4.9510052785676E+00
(PID.TID 0000.0001) %MON dynstat_eta_del2             =   2.0714761554254E-01
(PID.TID 0000.0001) %MON dynstat_uvel_max             =   3.8503015377565E-03
(PID.TID 0000.0001) %MON dynstat_uvel_min             =  -1.7152363100212E-02
(PID.TID 0000.0001) %MON dynstat_uvel_mean            =  -1.1526885896667E-07
(PID.TID 0000.0001) %MON dynstat_uvel_sd              =   5.0785403264202E-04
(PID.TID 0000.0001) %MON dynstat_uvel_del2            =   7.7228335988927E-07
(PID.TID 0000.0001) %MON dynstat_vvel_max             =   1.3751348167447E-02
(PID.TID 0000.0001) %MON dynstat_vvel_min             =  -6.0551743168551E-03
(PID.TID 0000.0001) %MON dynstat_vvel_mean            =   1.4575178852746E-05
(PID.TID 0000.0001) %MON dynstat_vvel_sd              =   3.2852279141411E-04
(PID.TID 0000.0001) %MON dynstat_vvel_del2            =   6.6013972361906E-07
(PID.TID 0000.0001) %MON dynstat_wvel_max             =   6.6305595734107E-04
(PID.TID 0000.0001) %MON dynstat_wvel_min             =  -6.5224462560924E-04
(PID.TID 0000.0001) %MON dynstat_wvel_mean            =   6.1431738696632E-09
(PID.TID 0000.0001) %MON dynstat_wvel_sd              =   1.7159227735966E-05
(PID.TID 0000.0001) %MON dynstat_wvel_del2            =   6.6879309070763E-08
(PID.TID 0000.0001) %MON dynstat_theta_max            =   1.2000000000000E+00
(PID.TID 0000.0001) %MON dynstat_theta_min            =  -1.0000000000000E+00
(PID.TID 0000.0001) %MON dynstat_theta_mean           =   5.6882623936101E-01
(PID.TID 0000.0001) %MON dynstat_theta_sd             =   8.6843427054787E-01
(PID.TID 0000.0001) %MON dynstat_theta_del2           =   2.0892010993293E-06
(PID.TID 0000.0001) %MON dynstat_salt_max             =   3.4700000000000E+01
(PID.TID 0000.0001) %MON dynstat_salt_min             =   3.4000000000000E+01
(PID.TID 0000.0001) %MON dynstat_salt_mean            =   3.4499144672609E+01
(PID.TID 0000.0001) %MON dynstat_salt_sd              =   2.7631033820864E-01
(PID.TID 0000.0001) %MON dynstat_salt_del2            =   8.2146628931865E-07
(PID.TID 0000.0001) %MON advcfl_uvel_max              =   1.7152363100212E-03
(PID.TID 0000.0001) %MON advcfl_vvel_max              =   1.3751348167447E-03
(PID.TID 0000.0001) %MON advcfl_wvel_max              =   3.3152797867054E-03
(PID.TID 0000.0001) %MON advcfl_W_hf_max              =   3.3152797867054E-03
(PID.TID 0000.0001) %MON pe_b_mean                    =  -8.3081277456922E-01
(PID.TID 0000.0001) %MON ke_max                       =   9.5053403947692E-05
(PID.TID 0000.0001) %MON ke_mean                      =   1.8046729085211E-07
(PID.TID 0000.0001) %MON ke_vol                       =   4.2724874868479E+12
(PID.TID 0000.0001) // =======================================================
(PID.TID 0000.0001) // End MONITOR dynamic field statistics
(PID.TID 0000.0001) // =======================================================
(PID.TID 0000.0001) // =======================================================
(PID.TID 0000.0001) // Begin OBCS MONITOR field statistics
(PID.TID 0000.0001) // =======================================================
(PID.TID 0000.0001) %MON obc_N_vVel_max               =   1.4371258438988E-05
(PID.TID 0000.0001) %MON obc_N_vVel_min               =   1.4371258438987E-05
(PID.TID 0000.0001) %MON obc_N_vVel_mean              =   1.4371258438987E-05
(PID.TID 0000.0001) %MON obc_N_vVel_sd                =   2.2850771577216E-12
(PID.TID 0000.0001) %MON obc_N_vVel_Int               =   9.4850305697317E+02
(PID.TID 0000.0001) // =======================================================
(PID.TID 0000.0001) // End OBCS MONITOR field statistics
(PID.TID 0000.0001) // =======================================================
 cg2d: Sum(rhs),rhsMax =   4.51404079567495E+00  2.99925531863332E+02
(PID.TID 0000.0001)      cg2d_init_res =   5.98614984696617E-06
(PID.TID 0000.0001)      cg2d_iters(min,last) =      -1      81
(PID.TID 0000.0001)      cg2d_last_res =   9.28026972472223E-12
(PID.TID 0000.0001) // =======================================================
(PID.TID 0000.0001) // Begin MONITOR dynamic field statistics
(PID.TID 0000.0001) // =======================================================
(PID.TID 0000.0001) %MON time_tsnumber                =                   936
(PID.TID 0000.0001) %MON time_secondsf                =   9.3600000000000E+04
(PID.TID 0000.0001) %MON dynstat_eta_max              =   5.7959558169142E+00
(PID.TID 0000.0001) %MON dynstat_eta_min              =  -1.4197826615109E+01
(PID.TID 0000.0001) %MON dynstat_eta_mean             =  -2.5071779379548E+00
(PID.TID 0000.0001) %MON dynstat_eta_sd               =   4.9510088950488E+00
(PID.TID 0000.0001) %MON dynstat_eta_del2             =   2.0714763872869E-01
(PID.TID 0000.0001) %MON dynstat_uvel_max             =   3.8604999162217E-03
(PID.TID 0000.0001) %MON dynstat_uvel_min             =  -1.7196336615992E-02
(PID.TID 0000.0001) %MON dynstat_uvel_mean            =  -1.1537013781660E-07
(PID.TID 0000.0001) %MON dynstat_uvel_sd              =   5.0917174940871E-04
(PID.TID 0000.0001) %MON dynstat_uvel_del2            =   7.7397809454744E-07
(PID.TID 0000.0001) %MON dynstat_vvel_max             =   1.3785118879885E-02
(PID.TID 0000.0001) %MON dynstat_vvel_min             =  -6.0664368421692E-03
(PID.TID 0000.0001) %MON dynstat_vvel_mean            =   1.4542981602825E-05
(PID.TID 0000.0001) %MON dynstat_vvel_sd              =   3.2931120650531E-04
(PID.TID 0000.0001) %MON dynstat_vvel_del2            =   6.6130326774603E-07
(PID.TID 0000.0001) %MON dynstat_wvel_max             =   6.6497343844263E-04
(PID.TID 0000.0001) %MON dynstat_wvel_min             =  -6.5403752285270E-04
(PID.TID 0000.0001) %MON dynstat_wvel_mean            =   6.1232078989009E-09
(PID.TID 0000.0001) %MON dynstat_wvel_sd              =   1.7232969049372E-05
(PID.TID 0000.0001) %MON dynstat_wvel_del2            =   6.6694890920677E-08
(PID.TID 0000.0001) %MON dynstat_theta_max            =   1.2000000000000E+00
(PID.TID 0000.0001) %MON dynstat_theta_min            =  -1.0000000000000E+00
(PID.TID 0000.0001) %MON dynstat_theta_mean           =   5.6882557896824E-01
(PID.TID 0000.0001) %MON dynstat_theta_sd             =   8.6843391136838E-01
(PID.TID 0000.0001) %MON dynstat_theta_del2           =   2.0937469037656E-06
(PID.TID 0000.0001) %MON dynstat_salt_max             =   3.4700000000000E+01
(PID.TID 0000.0001) %MON dynstat_salt_min             =   3.4000000000000E+01
(PID.TID 0000.0001) %MON dynstat_salt_mean            =   3.4499144408477E+01
(PID.TID 0000.0001) %MON dynstat_salt_sd              =   2.7631020051409E-01
(PID.TID 0000.0001) %MON dynstat_salt_del2            =   8.2326498086900E-07
(PID.TID 0000.0001) %MON advcfl_uvel_max              =   1.7196336615992E-03
(PID.TID 0000.0001) %MON advcfl_vvel_max              =   1.3785118879885E-03
(PID.TID 0000.0001) %MON advcfl_wvel_max              =   3.3248671922132E-03
(PID.TID 0000.0001) %MON advcfl_W_hf_max              =   3.3248671922132E-03
(PID.TID 0000.0001) %MON pe_b_mean                    =  -8.3081558228953E-01
(PID.TID 0000.0001) %MON ke_max                       =   9.5642310545531E-05
(PID.TID 0000.0001) %MON ke_mean                      =   1.8138292659286E-07
(PID.TID 0000.0001) %MON ke_vol                       =   4.2724874248135E+12
(PID.TID 0000.0001) // =======================================================
(PID.TID 0000.0001) // End MONITOR dynamic field statistics
(PID.TID 0000.0001) // =======================================================
(PID.TID 0000.0001) // =======================================================
(PID.TID 0000.0001) // Begin OBCS MONITOR field statistics
(PID.TID 0000.0001) // =======================================================
(PID.TID 0000.0001) %MON obc_N_vVel_max               =   1.4340861751377E-05
(PID.TID 0000.0001) %MON obc_N_vVel_min               =   1.4340861751376E-05
(PID.TID 0000.0001) %MON obc_N_vVel_mean              =   1.4340861751376E-05
(PID.TID 0000.0001) %MON obc_N_vVel_sd                =   4.2537719614006E-12
(PID.TID 0000.0001) %MON obc_N_vVel_Int               =   9.4649687559084E+02
(PID.TID 0000.0001) // =======================================================
(PID.TID 0000.0001) // End OBCS MONITOR field statistics
(PID.TID 0000.0001) // =======================================================
 cg2d: Sum(rhs),rhsMax =   4.51405852875441E+00  2.99925592289850E+02
(PID.TID 0000.0001)      cg2d_init_res =   5.97463060088496E-06
(PID.TID 0000.0001)      cg2d_iters(min,last) =      -1      81
(PID.TID 0000.0001)      cg2d_last_res =   9.29130477740065E-12
(PID.TID 0000.0001) // =======================================================
(PID.TID 0000.0001) // Begin MONITOR dynamic field statistics
(PID.TID 0000.0001) // =======================================================
(PID.TID 0000.0001) %MON time_tsnumber                =                   937
(PID.TID 0000.0001) %MON time_secondsf                =   9.3700000000000E+04
(PID.TID 0000.0001) %MON dynstat_eta_max              =   5.7959523894136E+00
(PID.TID 0000.0001) %MON dynstat_eta_min              =  -1.4197847737838E+01
(PID.TID 0000.0001) %MON dynstat_eta_mean             =  -2.5071882923476E+00
(PID.TID 0000.0001) %MON dynstat_eta_sd               =   4.9510124993404E+00
(PID.TID 0000.0001) %MON dynstat_eta_del2             =   2.0714766196085E-01
(PID.TID 0000.0001) %MON dynstat_uvel_max             =   3.8707196728325E-03
(PID.TID 0000.0001) %MON dynstat_uvel_min             =  -1.7240380335455E-02
(PID.TID 0000.0001) %MON dynstat_uvel_mean            =  -1.1548014080175E-07
(PID.TID 0000.0001) %MON dynstat_uvel_sd              =   5.1049261413339E-04
(PID.TID 0000.0001) %MON dynstat_uvel_del2            =   7.7567779175970E-07
(PID.TID 0000.0001) %MON dynstat_vvel_max             =   1.3818943222805E-02
(PID.TID 0000.0001) %MON dynstat_vvel_min             =  -6.0777119704074E-03
(PID.TID 0000.0001) %MON dynstat_vvel_mean            =   1.4512487840679E-05
(PID.TID 0000.0001) %MON dynstat_vvel_sd              =   3.3008804081868E-04
(PID.TID 0000.0001) %MON dynstat_vvel_del2            =   6.6246864428895E-07
(PID.TID 0000.0001) %MON dynstat_wvel_max             =   6.6689498364621E-04
(PID.TID 0000.0001) %MON dynstat_wvel_min             =  -6.5583442015285E-04
(PID.TID 0000.0001) %MON dynstat_wvel_mean            =   6.1064586319582E-09
(PID.TID 0000.0001) %MON dynstat_wvel_sd              =   1.7287072163843E-05
(PID.TID 0000.0001) %MON dynstat_wvel_del2            =   6.6453452330959E-08
(PID.TID 0000.0001) %MON dynstat_theta_max            =   1.2000000000000E+00
(PID.TID 0000.0001) %MON dynstat_theta_min            =  -1.0000000000000E+00
(PID.TID 0000.0001) %MON dynstat_theta_mean           =   5.6882491720627E-01
(PID.TID 0000.0001) %MON dynstat_theta_sd             =   8.6843355147762E-01
(PID.TID 0000.0001) %MON dynstat_theta_del2           =   2.0983473334869E-06
(PID.TID 0000.0001) %MON dynstat_salt_max             =   3.4700000000000E+01
(PID.TID 0000.0001) %MON dynstat_salt_min             =   3.4000000000000E+01
(PID.TID 0000.0001) %MON dynstat_salt_mean            =   3.4499144143795E+01
(PID.TID 0000.0001) %MON dynstat_salt_sd              =   2.7631006253937E-01
(PID.TID 0000.0001) %MON dynstat_salt_del2            =   8.2507996028771E-07
(PID.TID 0000.0001) %MON advcfl_uvel_max              =   1.7240380335455E-03
(PID.TID 0000.0001) %MON advcfl_vvel_max              =   1.3818943222805E-03
(PID.TID 0000.0001) %MON advcfl_wvel_max              =   3.3344749182311E-03
(PID.TID 0000.0001) %MON advcfl_W_hf_max              =   3.3344749182311E-03
(PID.TID 0000.0001) %MON pe_b_mean                    =  -8.3081837831400E-01
(PID.TID 0000.0001) %MON ke_max                       =   9.6234466089894E-05
(PID.TID 0000.0001) %MON ke_mean                      =   1.8229866420261E-07
(PID.TID 0000.0001) %MON ke_vol                       =   4.2724873630485E+12
(PID.TID 0000.0001) // =======================================================
(PID.TID 0000.0001) // End MONITOR dynamic field statistics
(PID.TID 0000.0001) // =======================================================
(PID.TID 0000.0001) // =======================================================
(PID.TID 0000.0001) // Begin OBCS MONITOR field statistics
(PID.TID 0000.0001) // =======================================================
(PID.TID 0000.0001) %MON obc_N_vVel_max               =   1.4311923741068E-05
(PID.TID 0000.0001) %MON obc_N_vVel_min               =   1.4311923741068E-05
(PID.TID 0000.0001) %MON obc_N_vVel_mean              =   1.4311923741068E-05
(PID.TID 0000.0001) %MON obc_N_vVel_sd                =   2.7094700471509E-12
(PID.TID 0000.0001) %MON obc_N_vVel_Int               =   9.4458696691049E+02
(PID.TID 0000.0001) // =======================================================
(PID.TID 0000.0001) // End OBCS MONITOR field statistics
(PID.TID 0000.0001) // =======================================================
 cg2d: Sum(rhs),rhsMax =   4.51407618767503E+00  2.99925652625784E+02
(PID.TID 0000.0001)      cg2d_init_res =   5.96480556026272E-06
(PID.TID 0000.0001)      cg2d_iters(min,last) =      -1      81
(PID.TID 0000.0001)      cg2d_last_res =   9.30238278861256E-12
(PID.TID 0000.0001) // =======================================================
(PID.TID 0000.0001) // Begin MONITOR dynamic field statistics
(PID.TID 0000.0001) // =======================================================
(PID.TID 0000.0001) %MON time_tsnumber                =                   938
(PID.TID 0000.0001) %MON time_secondsf                =   9.3800000000000E+04
(PID.TID 0000.0001) %MON dynstat_eta_max              =   5.7959490505229E+00
(PID.TID 0000.0001) %MON dynstat_eta_min              =  -1.4197868797440E+01
(PID.TID 0000.0001) %MON dynstat_eta_mean             =  -2.5071986047980E+00
(PID.TID 0000.0001) %MON dynstat_eta_sd               =   4.9510160922030E+00
(PID.TID 0000.0001) %MON dynstat_eta_del2             =   2.0714768523998E-01
(PID.TID 0000.0001) %MON dynstat_uvel_max             =   3.8809608275514E-03
(PID.TID 0000.0001) %MON dynstat_uvel_min             =  -1.7284494179300E-02
(PID.TID 0000.0001) %MON dynstat_uvel_mean            =  -1.1559835348616E-07
(PID.TID 0000.0001) %MON dynstat_uvel_sd              =   5.1181665269147E-04
(PID.TID 0000.0001) %MON dynstat_uvel_del2            =   7.7738244108588E-07
(PID.TID 0000.0001) %MON dynstat_vvel_max             =   1.3852821193654E-02
(PID.TID 0000.0001) %MON dynstat_vvel_min             =  -6.0889996951579E-03
(PID.TID 0000.0001) %MON dynstat_vvel_mean            =   1.4483896660781E-05
(PID.TID 0000.0001) %MON dynstat_vvel_sd              =   3.3085266337089E-04
(PID.TID 0000.0001) %MON dynstat_vvel_del2            =   6.6364695973909E-07
(PID.TID 0000.0001) %MON dynstat_wvel_max             =   6.6882059502342E-04
(PID.TID 0000.0001) %MON dynstat_wvel_min             =  -6.5763532068587E-04
(PID.TID 0000.0001) %MON dynstat_wvel_mean            =   6.0930927581387E-09
(PID.TID 0000.0001) %MON dynstat_wvel_sd              =   1.7322612388251E-05
(PID.TID 0000.0001) %MON dynstat_wvel_del2            =   6.6186371301664E-08
(PID.TID 0000.0001) %MON dynstat_theta_max            =   1.2000000000000E+00
(PID.TID 0000.0001) %MON dynstat_theta_min            =  -1.0000000000000E+00
(PID.TID 0000.0001) %MON dynstat_theta_mean           =   5.6882425407240E-01
(PID.TID 0000.0001) %MON dynstat_theta_sd             =   8.6843319086835E-01
(PID.TID 0000.0001) %MON dynstat_theta_del2           =   2.1029939650245E-06
(PID.TID 0000.0001) %MON dynstat_salt_max             =   3.4700000000000E+01
(PID.TID 0000.0001) %MON dynstat_salt_min             =   3.4000000000000E+01
(PID.TID 0000.0001) %MON dynstat_salt_mean            =   3.4499143878563E+01
(PID.TID 0000.0001) %MON dynstat_salt_sd              =   2.7630992428219E-01
(PID.TID 0000.0001) %MON dynstat_salt_del2            =   8.2690896999436E-07
(PID.TID 0000.0001) %MON advcfl_uvel_max              =   1.7284494179300E-03
(PID.TID 0000.0001) %MON advcfl_vvel_max              =   1.3852821193654E-03
(PID.TID 0000.0001) %MON advcfl_wvel_max              =   3.3441029751171E-03
(PID.TID 0000.0001) %MON advcfl_W_hf_max              =   3.3441029751171E-03
(PID.TID 0000.0001) %MON pe_b_mean                    =  -8.3082116314222E-01
(PID.TID 0000.0001) %MON ke_max                       =   9.6829884960384E-05
(PID.TID 0000.0001) %MON ke_mean                      =   1.8321429586648E-07
(PID.TID 0000.0001) %MON ke_vol                       =   4.2724873015435E+12
(PID.TID 0000.0001) // =======================================================
(PID.TID 0000.0001) // End MONITOR dynamic field statistics
(PID.TID 0000.0001) // =======================================================
(PID.TID 0000.0001) // =======================================================
(PID.TID 0000.0001) // Begin OBCS MONITOR field statistics
(PID.TID 0000.0001) // =======================================================
(PID.TID 0000.0001) %MON obc_N_vVel_max               =   1.4284628884534E-05
(PID.TID 0000.0001) %MON obc_N_vVel_min               =   1.4284628884534E-05
(PID.TID 0000.0001) %MON obc_N_vVel_mean              =   1.4284628884534E-05
(PID.TID 0000.0001) %MON obc_N_vVel_sd                =   1.6785660432371E-12
(PID.TID 0000.0001) %MON obc_N_vVel_Int               =   9.4278550637921E+02
(PID.TID 0000.0001) // =======================================================
(PID.TID 0000.0001) // End OBCS MONITOR field statistics
(PID.TID 0000.0001) // =======================================================
 cg2d: Sum(rhs),rhsMax =   4.51409377488203E+00  2.99925712948916E+02
(PID.TID 0000.0001)      cg2d_init_res =   5.95706246258257E-06
(PID.TID 0000.0001)      cg2d_iters(min,last) =      -1      81
(PID.TID 0000.0001)      cg2d_last_res =   9.31367726012029E-12
(PID.TID 0000.0001) // =======================================================
(PID.TID 0000.0001) // Begin MONITOR dynamic field statistics
(PID.TID 0000.0001) // =======================================================
(PID.TID 0000.0001) %MON time_tsnumber                =                   939
(PID.TID 0000.0001) %MON time_secondsf                =   9.3900000000000E+04
(PID.TID 0000.0001) %MON dynstat_eta_max              =   5.7959457966281E+00
(PID.TID 0000.0001) %MON dynstat_eta_min              =  -1.4197889797625E+01
(PID.TID 0000.0001) %MON dynstat_eta_mean             =  -2.5072088773144E+00
(PID.TID 0000.0001) %MON dynstat_eta_sd               =   4.9510196744631E+00
(PID.TID 0000.0001) %MON dynstat_eta_del2             =   2.0714770856713E-01
(PID.TID 0000.0001) %MON dynstat_uvel_max             =   3.8912234010660E-03
(PID.TID 0000.0001) %MON dynstat_uvel_min             =  -1.7328678067045E-02
(PID.TID 0000.0001) %MON dynstat_uvel_mean            =  -1.1572419103037E-07
(PID.TID 0000.0001) %MON dynstat_uvel_sd              =   5.1314388799357E-04
(PID.TID 0000.0001) %MON dynstat_uvel_del2            =   7.7909203033996E-07
(PID.TID 0000.0001) %MON dynstat_vvel_max             =   1.3886752788563E-02
(PID.TID 0000.0001) %MON dynstat_vvel_min             =  -6.1003000103392E-03
(PID.TID 0000.0001) %MON dynstat_vvel_mean            =   1.4457401618857E-05
(PID.TID 0000.0001) %MON dynstat_vvel_sd              =   3.3160470578714E-04
(PID.TID 0000.0001) %MON dynstat_vvel_del2            =   6.6484927865814E-07
(PID.TID 0000.0001) %MON dynstat_wvel_max             =   6.7075027459090E-04
(PID.TID 0000.0001) %MON dynstat_wvel_min             =  -6.5944022755844E-04
(PID.TID 0000.0001) %MON dynstat_wvel_mean            =   6.0832626285412E-09
(PID.TID 0000.0001) %MON dynstat_wvel_sd              =   1.7340923246943E-05
(PID.TID 0000.0001) %MON dynstat_wvel_del2            =   6.5925815991009E-08
(PID.TID 0000.0001) %MON dynstat_theta_max            =   1.2000000000000E+00
(PID.TID 0000.0001) %MON dynstat_theta_min            =  -1.0000000000000E+00
(PID.TID 0000.0001) %MON dynstat_theta_mean           =   5.6882358956292E-01
(PID.TID 0000.0001) %MON dynstat_theta_sd             =   8.6843282952551E-01
(PID.TID 0000.0001) %MON dynstat_theta_del2           =   2.1076778659592E-06
(PID.TID 0000.0001) %MON dynstat_salt_max             =   3.4700000000000E+01
(PID.TID 0000.0001) %MON dynstat_salt_min             =   3.4000000000000E+01
(PID.TID 0000.0001) %MON dynstat_salt_mean            =   3.4499143612779E+01
(PID.TID 0000.0001) %MON dynstat_salt_sd              =   2.7630978573797E-01
(PID.TID 0000.0001) %MON dynstat_salt_del2            =   8.2874965171194E-07
(PID.TID 0000.0001) %MON advcfl_uvel_max              =   1.7328678067045E-03
(PID.TID 0000.0001) %MON advcfl_vvel_max              =   1.3886752788563E-03
(PID.TID 0000.0001) %MON advcfl_wvel_max              =   3.3537513729545E-03
(PID.TID 0000.0001) %MON advcfl_W_hf_max              =   3.3537513729545E-03
(PID.TID 0000.0001) %MON pe_b_mean                    =  -8.3082393732344E-01
(PID.TID 0000.0001) %MON ke_max                       =   9.7428581572498E-05
(PID.TID 0000.0001) %MON ke_mean                      =   1.8412969792730E-07
(PID.TID 0000.0001) %MON ke_vol                       =   4.2724872402875E+12
(PID.TID 0000.0001) // =======================================================
(PID.TID 0000.0001) // End MONITOR dynamic field statistics
(PID.TID 0000.0001) // =======================================================
(PID.TID 0000.0001) // =======================================================
(PID.TID 0000.0001) // Begin OBCS MONITOR field statistics
(PID.TID 0000.0001) // =======================================================
(PID.TID 0000.0001) %MON obc_N_vVel_max               =   1.4259157143829E-05
(PID.TID 0000.0001) %MON obc_N_vVel_min               =   1.4259157143829E-05
(PID.TID 0000.0001) %MON obc_N_vVel_mean              =   1.4259157143829E-05
(PID.TID 0000.0001) %MON obc_N_vVel_sd                =  -2.0679515313826E-25
(PID.TID 0000.0001) %MON obc_N_vVel_Int               =   9.4110437149270E+02
(PID.TID 0000.0001) // =======================================================
(PID.TID 0000.0001) // End OBCS MONITOR field statistics
(PID.TID 0000.0001) // =======================================================
 cg2d: Sum(rhs),rhsMax =   4.51411129314173E+00  2.99925773338858E+02
(PID.TID 0000.0001)      cg2d_init_res =   5.95178009274328E-06
(PID.TID 0000.0001)      cg2d_iters(min,last) =      -1      81
(PID.TID 0000.0001)      cg2d_last_res =   9.32532894060039E-12
(PID.TID 0000.0001) // =======================================================
(PID.TID 0000.0001) // Begin MONITOR dynamic field statistics
(PID.TID 0000.0001) // =======================================================
(PID.TID 0000.0001) %MON time_tsnumber                =                   940
(PID.TID 0000.0001) %MON time_secondsf                =   9.4000000000000E+04
(PID.TID 0000.0001) %MON dynstat_eta_max              =   5.7959426237896E+00
(PID.TID 0000.0001) %MON dynstat_eta_min              =  -1.4197910742428E+01
(PID.TID 0000.0001) %MON dynstat_eta_mean             =  -2.5072191120985E+00
(PID.TID 0000.0001) %MON dynstat_eta_sd               =   4.9510232470022E+00
(PID.TID 0000.0001) %MON dynstat_eta_del2             =   2.0714773194327E-01
(PID.TID 0000.0001) %MON dynstat_uvel_max             =   3.9015074151258E-03
(PID.TID 0000.0001) %MON dynstat_uvel_min             =  -1.7372931916896E-02
(PID.TID 0000.0001) %MON dynstat_uvel_mean            =  -1.1585700616470E-07
(PID.TID 0000.0001) %MON dynstat_uvel_sd              =   5.1447433992628E-04
(PID.TID 0000.0001) %MON dynstat_uvel_del2            =   7.8080654656767E-07
(PID.TID 0000.0001) %MON dynstat_vvel_max             =   1.3920738002238E-02
(PID.TID 0000.0001) %MON dynstat_vvel_min             =  -6.1116129105185E-03
(PID.TID 0000.0001) %MON dynstat_vvel_mean            =   1.4433189334304E-05
(PID.TID 0000.0001) %MON dynstat_vvel_sd              =   3.3234404195219E-04
(PID.TID 0000.0001) %MON dynstat_vvel_del2            =   6.6608572401416E-07
(PID.TID 0000.0001) %MON dynstat_wvel_max             =   6.7268402433522E-04
(PID.TID 0000.0001) %MON dynstat_wvel_min             =  -6.6124914371234E-04
(PID.TID 0000.0001) %MON dynstat_wvel_mean            =   6.0771008675340E-09
(PID.TID 0000.0001) %MON dynstat_wvel_sd              =   1.7343385556266E-05
(PID.TID 0000.0001) %MON dynstat_wvel_del2            =   6.5701545034943E-08
(PID.TID 0000.0001) %MON dynstat_theta_max            =   1.2000000000000E+00
(PID.TID 0000.0001) %MON dynstat_theta_min            =  -1.0000000000000E+00
(PID.TID 0000.0001) %MON dynstat_theta_mean           =   5.6882292367355E-01
(PID.TID 0000.0001) %MON dynstat_theta_sd             =   8.6843246743690E-01
(PID.TID 0000.0001) %MON dynstat_theta_del2           =   2.1123904622934E-06
(PID.TID 0000.0001) %MON dynstat_salt_max             =   3.4700000000000E+01
(PID.TID 0000.0001) %MON dynstat_salt_min             =   3.4000000000000E+01
(PID.TID 0000.0001) %MON dynstat_salt_mean            =   3.4499143346440E+01
(PID.TID 0000.0001) %MON dynstat_salt_sd              =   2.7630964690246E-01
(PID.TID 0000.0001) %MON dynstat_salt_del2            =   8.3059971876431E-07
(PID.TID 0000.0001) %MON advcfl_uvel_max              =   1.7372931916896E-03
(PID.TID 0000.0001) %MON advcfl_vvel_max              =   1.3920738002238E-03
(PID.TID 0000.0001) %MON advcfl_wvel_max              =   3.3634201216761E-03
(PID.TID 0000.0001) %MON advcfl_W_hf_max              =   3.3634201216761E-03
(PID.TID 0000.0001) %MON pe_b_mean                    =  -8.3082670145392E-01
(PID.TID 0000.0001) %MON ke_max                       =   9.8030570374600E-05
(PID.TID 0000.0001) %MON ke_mean                      =   1.8504482510854E-07
(PID.TID 0000.0001) %MON ke_vol                       =   4.2724871792688E+12
(PID.TID 0000.0001) // =======================================================
(PID.TID 0000.0001) // End MONITOR dynamic field statistics
(PID.TID 0000.0001) // =======================================================
(PID.TID 0000.0001) // =======================================================
(PID.TID 0000.0001) // Begin OBCS MONITOR field statistics
(PID.TID 0000.0001) // =======================================================
(PID.TID 0000.0001) %MON obc_N_vVel_max               =   1.4235682984037E-05
(PID.TID 0000.0001) %MON obc_N_vVel_min               =   1.4235682984037E-05
(PID.TID 0000.0001) %MON obc_N_vVel_mean              =   1.4235682984037E-05
(PID.TID 0000.0001) %MON obc_N_vVel_sd                =  -4.2651500334765E-24
(PID.TID 0000.0001) %MON obc_N_vVel_Int               =   9.3955507694642E+02
(PID.TID 0000.0001) // =======================================================
(PID.TID 0000.0001) // End OBCS MONITOR field statistics
(PID.TID 0000.0001) // =======================================================
 cg2d: Sum(rhs),rhsMax =   4.51412874550778E+00  2.99925833878101E+02
(PID.TID 0000.0001)      cg2d_init_res =   5.94924042903805E-06
(PID.TID 0000.0001)      cg2d_iters(min,last) =      -1      81
(PID.TID 0000.0001)      cg2d_last_res =   9.33753255896180E-12
(PID.TID 0000.0001) // =======================================================
(PID.TID 0000.0001) // Begin MONITOR dynamic field statistics
(PID.TID 0000.0001) // =======================================================
(PID.TID 0000.0001) %MON time_tsnumber                =                   941
(PID.TID 0000.0001) %MON time_secondsf                =   9.4100000000000E+04
(PID.TID 0000.0001) %MON dynstat_eta_max              =   5.7959395277590E+00
(PID.TID 0000.0001) %MON dynstat_eta_min              =  -1.4197931636209E+01
(PID.TID 0000.0001) %MON dynstat_eta_mean             =  -2.5072293115362E+00
(PID.TID 0000.0001) %MON dynstat_eta_sd               =   4.9510268107526E+00
(PID.TID 0000.0001) %MON dynstat_eta_del2             =   2.0714775536923E-01
(PID.TID 0000.0001) %MON dynstat_uvel_max             =   3.9118128923405E-03
(PID.TID 0000.0001) %MON dynstat_uvel_min             =  -1.7417255645775E-02
(PID.TID 0000.0001) %MON dynstat_uvel_mean            =  -1.1599611024181E-07
(PID.TID 0000.0001) %MON dynstat_uvel_sd              =   5.1580802535716E-04
(PID.TID 0000.0001) %MON dynstat_uvel_del2            =   7.8252597707922E-07
(PID.TID 0000.0001) %MON dynstat_vvel_max             =   1.3954776827583E-02
(PID.TID 0000.0001) %MON dynstat_vvel_min             =  -6.1229383910950E-03
(PID.TID 0000.0001) %MON dynstat_vvel_mean            =   1.4411438063839E-05
(PID.TID 0000.0001) %MON dynstat_vvel_sd              =   3.3307076723300E-04
(PID.TID 0000.0001) %MON dynstat_vvel_del2            =   6.6736469679547E-07
(PID.TID 0000.0001) %MON dynstat_wvel_max             =   6.7462184619016E-04
(PID.TID 0000.0001) %MON dynstat_wvel_min             =  -6.6306207203394E-04
(PID.TID 0000.0001) %MON dynstat_wvel_mean            =   6.0747223616890E-09
(PID.TID 0000.0001) %MON dynstat_wvel_sd              =   1.7331246012164E-05
(PID.TID 0000.0001) %MON dynstat_wvel_del2            =   6.5537913610751E-08
(PID.TID 0000.0001) %MON dynstat_theta_max            =   1.2000000000000E+00
(PID.TID 0000.0001) %MON dynstat_theta_min            =  -1.0000000000000E+00
(PID.TID 0000.0001) %MON dynstat_theta_mean           =   5.6882225639920E-01
(PID.TID 0000.0001) %MON dynstat_theta_sd             =   8.6843210460274E-01
(PID.TID 0000.0001) %MON dynstat_theta_del2           =   2.1171242258328E-06
(PID.TID 0000.0001) %MON dynstat_salt_max             =   3.4700000000000E+01
(PID.TID 0000.0001) %MON dynstat_salt_min             =   3.4000000000000E+01
(PID.TID 0000.0001) %MON dynstat_salt_mean            =   3.4499143079546E+01
(PID.TID 0000.0001) %MON dynstat_salt_sd              =   2.7630950777593E-01
(PID.TID 0000.0001) %MON dynstat_salt_del2            =   8.3245722647077E-07
(PID.TID 0000.0001) %MON advcfl_uvel_max              =   1.7417255645775E-03
(PID.TID 0000.0001) %MON advcfl_vvel_max              =   1.3954776827583E-03
(PID.TID 0000.0001) %MON advcfl_wvel_max              =   3.3731092309508E-03
(PID.TID 0000.0001) %MON advcfl_W_hf_max              =   3.3731092309508E-03
(PID.TID 0000.0001) %MON pe_b_mean                    =  -8.3082945617421E-01
(PID.TID 0000.0001) %MON ke_max                       =   9.8635865850902E-05
(PID.TID 0000.0001) %MON ke_mean                      =   1.8595970448888E-07
(PID.TID 0000.0001) %MON ke_vol                       =   4.2724871184741E+12
(PID.TID 0000.0001) // =======================================================
(PID.TID 0000.0001) // End MONITOR dynamic field statistics
(PID.TID 0000.0001) // =======================================================
(PID.TID 0000.0001) // =======================================================
(PID.TID 0000.0001) // Begin OBCS MONITOR field statistics
(PID.TID 0000.0001) // =======================================================
(PID.TID 0000.0001) %MON obc_N_vVel_max               =   1.4214373852740E-05
(PID.TID 0000.0001) %MON obc_N_vVel_min               =   1.4214373852740E-05
(PID.TID 0000.0001) %MON obc_N_vVel_mean              =   1.4214373852740E-05
(PID.TID 0000.0001) %MON obc_N_vVel_sd                =  -2.1274051379098E-23
(PID.TID 0000.0001) %MON obc_N_vVel_Int               =   9.3814867428085E+02
(PID.TID 0000.0001) // =======================================================
(PID.TID 0000.0001) // End OBCS MONITOR field statistics
(PID.TID 0000.0001) // =======================================================
 cg2d: Sum(rhs),rhsMax =   4.51414613536425E+00  2.99925894648450E+02
(PID.TID 0000.0001)      cg2d_init_res =   5.94973181415357E-06
(PID.TID 0000.0001)      cg2d_iters(min,last) =      -1      81
(PID.TID 0000.0001)      cg2d_last_res =   9.35043205286660E-12
(PID.TID 0000.0001) // =======================================================
(PID.TID 0000.0001) // Begin MONITOR dynamic field statistics
(PID.TID 0000.0001) // =======================================================
(PID.TID 0000.0001) %MON time_tsnumber                =                   942
(PID.TID 0000.0001) %MON time_secondsf                =   9.4200000000000E+04
(PID.TID 0000.0001) %MON dynstat_eta_max              =   5.7959365039940E+00
(PID.TID 0000.0001) %MON dynstat_eta_min              =  -1.4197952483623E+01
(PID.TID 0000.0001) %MON dynstat_eta_mean             =  -2.5072394781907E+00
(PID.TID 0000.0001) %MON dynstat_eta_sd               =   4.9510303666977E+00
(PID.TID 0000.0001) %MON dynstat_eta_del2             =   2.0714777884601E-01
(PID.TID 0000.0001) %MON dynstat_uvel_max             =   3.9221398563924E-03
(PID.TID 0000.0001) %MON dynstat_uvel_min             =  -1.7461649169249E-02
(PID.TID 0000.0001) %MON dynstat_uvel_mean            =  -1.1614080281957E-07
(PID.TID 0000.0001) %MON dynstat_uvel_sd              =   5.1714495818382E-04
(PID.TID 0000.0001) %MON dynstat_uvel_del2            =   7.8425031008277E-07
(PID.TID 0000.0001) %MON dynstat_vvel_max             =   1.3988869255655E-02
(PID.TID 0000.0001) %MON dynstat_vvel_min             =  -6.1342764482335E-03
(PID.TID 0000.0001) %MON dynstat_vvel_mean            =   1.4392316281502E-05
(PID.TID 0000.0001) %MON dynstat_vvel_sd              =   3.3378518001433E-04
(PID.TID 0000.0001) %MON dynstat_vvel_del2            =   6.6869228874191E-07
(PID.TID 0000.0001) %MON dynstat_wvel_max             =   6.7656374204722E-04
(PID.TID 0000.0001) %MON dynstat_wvel_min             =  -6.6487901517134E-04
(PID.TID 0000.0001) %MON dynstat_wvel_mean            =   6.0762195586117E-09
(PID.TID 0000.0001) %MON dynstat_wvel_sd              =   1.7305483208001E-05
(PID.TID 0000.0001) %MON dynstat_wvel_del2            =   6.5451452314427E-08
(PID.TID 0000.0001) %MON dynstat_theta_max            =   1.2000000000000E+00
(PID.TID 0000.0001) %MON dynstat_theta_min            =  -1.0000000000000E+00
(PID.TID 0000.0001) %MON dynstat_theta_mean           =   5.6882158773425E-01
(PID.TID 0000.0001) %MON dynstat_theta_sd             =   8.6843174102791E-01
(PID.TID 0000.0001) %MON dynstat_theta_del2           =   2.1218731558414E-06
(PID.TID 0000.0001) %MON dynstat_salt_max             =   3.4700000000000E+01
(PID.TID 0000.0001) %MON dynstat_salt_min             =   3.4000000000000E+01
(PID.TID 0000.0001) %MON dynstat_salt_mean            =   3.4499142812095E+01
(PID.TID 0000.0001) %MON dynstat_salt_sd              =   2.7630936835986E-01
(PID.TID 0000.0001) %MON dynstat_salt_del2            =   8.3432047847850E-07
(PID.TID 0000.0001) %MON advcfl_uvel_max              =   1.7461649169249E-03
(PID.TID 0000.0001) %MON advcfl_vvel_max              =   1.3988869255655E-03
(PID.TID 0000.0001) %MON advcfl_wvel_max              =   3.3828187102361E-03
(PID.TID 0000.0001) %MON advcfl_W_hf_max              =   3.3828187102361E-03
(PID.TID 0000.0001) %MON pe_b_mean                    =  -8.3083220216737E-01
(PID.TID 0000.0001) %MON ke_max                       =   9.9244482519009E-05
(PID.TID 0000.0001) %MON ke_mean                      =   1.8687443013747E-07
(PID.TID 0000.0001) %MON ke_vol                       =   4.2724870578895E+12
(PID.TID 0000.0001) // =======================================================
(PID.TID 0000.0001) // End MONITOR dynamic field statistics
(PID.TID 0000.0001) // =======================================================
(PID.TID 0000.0001) // =======================================================
(PID.TID 0000.0001) // Begin OBCS MONITOR field statistics
(PID.TID 0000.0001) // =======================================================
(PID.TID 0000.0001) %MON obc_N_vVel_max               =   1.4195389085879E-05
(PID.TID 0000.0001) %MON obc_N_vVel_min               =   1.4195389085878E-05
(PID.TID 0000.0001) %MON obc_N_vVel_mean              =   1.4195389085879E-05
(PID.TID 0000.0001) %MON obc_N_vVel_sd                =  -1.0598251598336E-23
(PID.TID 0000.0001) %MON obc_N_vVel_Int               =   9.3689567966798E+02
(PID.TID 0000.0001) // =======================================================
(PID.TID 0000.0001) // End OBCS MONITOR field statistics
(PID.TID 0000.0001) // =======================================================
 cg2d: Sum(rhs),rhsMax =   4.51416346637667E+00  2.99925955733169E+02
(PID.TID 0000.0001)      cg2d_init_res =   5.95342912261964E-06
(PID.TID 0000.0001)      cg2d_iters(min,last) =      -1      81
(PID.TID 0000.0001)      cg2d_last_res =   9.36411759279882E-12
(PID.TID 0000.0001) // =======================================================
(PID.TID 0000.0001) // Begin MONITOR dynamic field statistics
(PID.TID 0000.0001) // =======================================================
(PID.TID 0000.0001) %MON time_tsnumber                =                   943
(PID.TID 0000.0001) %MON time_secondsf                =   9.4300000000000E+04
(PID.TID 0000.0001) %MON dynstat_eta_max              =   5.7959335476787E+00
(PID.TID 0000.0001) %MON dynstat_eta_min              =  -1.4197973289601E+01
(PID.TID 0000.0001) %MON dynstat_eta_mean             =  -2.5072496147940E+00
(PID.TID 0000.0001) %MON dynstat_eta_sd               =   4.9510339158671E+00
(PID.TID 0000.0001) %MON dynstat_eta_del2             =   2.0714780237467E-01
(PID.TID 0000.0001) %MON dynstat_uvel_max             =   3.9324883320724E-03
(PID.TID 0000.0001) %MON dynstat_uvel_min             =  -1.7506112401641E-02
(PID.TID 0000.0001) %MON dynstat_uvel_mean            =  -1.1629037535457E-07
(PID.TID 0000.0001) %MON dynstat_uvel_sd              =   5.1848514945215E-04
(PID.TID 0000.0001) %MON dynstat_uvel_del2            =   7.8597953581220E-07
(PID.TID 0000.0001) %MON dynstat_vvel_max             =   1.4023015275466E-02
(PID.TID 0000.0001) %MON dynstat_vvel_min             =  -6.1456270791718E-03
(PID.TID 0000.0001) %MON dynstat_vvel_mean            =   1.4375981297145E-05
(PID.TID 0000.0001) %MON dynstat_vvel_sd              =   3.3448776761189E-04
(PID.TID 0000.0001) %MON dynstat_vvel_del2            =   6.7007193808340E-07
(PID.TID 0000.0001) %MON dynstat_wvel_max             =   6.7850971376118E-04
(PID.TID 0000.0001) %MON dynstat_wvel_min             =  -6.6669997569554E-04
(PID.TID 0000.0001) %MON dynstat_wvel_mean            =   6.0816663985874E-09
(PID.TID 0000.0001) %MON dynstat_wvel_sd              =   1.7266734689137E-05
(PID.TID 0000.0001) %MON dynstat_wvel_del2            =   6.5449355677110E-08
(PID.TID 0000.0001) %MON dynstat_theta_max            =   1.2000000000000E+00
(PID.TID 0000.0001) %MON dynstat_theta_min            =  -1.0000000000000E+00
(PID.TID 0000.0001) %MON dynstat_theta_mean           =   5.6882091767305E-01
(PID.TID 0000.0001) %MON dynstat_theta_sd             =   8.6843137671594E-01
(PID.TID 0000.0001) %MON dynstat_theta_del2           =   2.1266330082362E-06
(PID.TID 0000.0001) %MON dynstat_salt_max             =   3.4700000000000E+01
(PID.TID 0000.0001) %MON dynstat_salt_min             =   3.4000000000000E+01
(PID.TID 0000.0001) %MON dynstat_salt_mean            =   3.4499142544083E+01
(PID.TID 0000.0001) %MON dynstat_salt_sd              =   2.7630922865513E-01
(PID.TID 0000.0001) %MON dynstat_salt_del2            =   8.3618828846800E-07
(PID.TID 0000.0001) %MON advcfl_uvel_max              =   1.7506112401641E-03
(PID.TID 0000.0001) %MON advcfl_vvel_max              =   1.4023015275466E-03
(PID.TID 0000.0001) %MON advcfl_wvel_max              =   3.3925485688059E-03
(PID.TID 0000.0001) %MON advcfl_W_hf_max              =   3.3925485688059E-03
(PID.TID 0000.0001) %MON pe_b_mean                    =  -8.3083494015660E-01
(PID.TID 0000.0001) %MON ke_max                       =   9.9856434931979E-05
(PID.TID 0000.0001) %MON ke_mean                      =   1.8778915913005E-07
(PID.TID 0000.0001) %MON ke_vol                       =   4.2724869974995E+12
(PID.TID 0000.0001) // =======================================================
(PID.TID 0000.0001) // End MONITOR dynamic field statistics
(PID.TID 0000.0001) // =======================================================
(PID.TID 0000.0001) // =======================================================
(PID.TID 0000.0001) // Begin OBCS MONITOR field statistics
(PID.TID 0000.0001) // =======================================================
(PID.TID 0000.0001) %MON obc_N_vVel_max               =   1.4178878370751E-05
(PID.TID 0000.0001) %MON obc_N_vVel_min               =   1.4178878370750E-05
(PID.TID 0000.0001) %MON obc_N_vVel_mean              =   1.4178878370751E-05
(PID.TID 0000.0001) %MON obc_N_vVel_sd                =  -5.4542221640215E-24
(PID.TID 0000.0001) %MON obc_N_vVel_Int               =   9.3580597246956E+02
(PID.TID 0000.0001) // =======================================================
(PID.TID 0000.0001) // End OBCS MONITOR field statistics
(PID.TID 0000.0001) // =======================================================
 cg2d: Sum(rhs),rhsMax =   4.51418074248755E+00  2.99926017215476E+02
(PID.TID 0000.0001)      cg2d_init_res =   5.96038930579073E-06
(PID.TID 0000.0001)      cg2d_iters(min,last) =      -1      81
(PID.TID 0000.0001)      cg2d_last_res =   9.37870958880126E-12
(PID.TID 0000.0001) // =======================================================
(PID.TID 0000.0001) // Begin MONITOR dynamic field statistics
(PID.TID 0000.0001) // =======================================================
(PID.TID 0000.0001) %MON time_tsnumber                =                   944
(PID.TID 0000.0001) %MON time_secondsf                =   9.4400000000000E+04
(PID.TID 0000.0001) %MON dynstat_eta_max              =   5.7959306537543E+00
(PID.TID 0000.0001) %MON dynstat_eta_min              =  -1.4197994059340E+01
(PID.TID 0000.0001) %MON dynstat_eta_mean             =  -2.5072597242316E+00
(PID.TID 0000.0001) %MON dynstat_eta_sd               =   4.9510374593324E+00
(PID.TID 0000.0001) %MON dynstat_eta_del2             =   2.0714782595637E-01
(PID.TID 0000.0001) %MON dynstat_uvel_max             =   3.9428583451482E-03
(PID.TID 0000.0001) %MON dynstat_uvel_min             =  -1.7550645255799E-02
(PID.TID 0000.0001) %MON dynstat_uvel_mean            =  -1.1644410773501E-07
(PID.TID 0000.0001) %MON dynstat_uvel_sd              =   5.1982860750714E-04
(PID.TID 0000.0001) %MON dynstat_uvel_del2            =   7.8771364684565E-07
(PID.TID 0000.0001) %MON dynstat_vvel_max             =   1.4057214873833E-02
(PID.TID 0000.0001) %MON dynstat_vvel_min             =  -6.1569902822791E-03
(PID.TID 0000.0001) %MON dynstat_vvel_mean            =   1.4362577912768E-05
(PID.TID 0000.0001) %MON dynstat_vvel_sd              =   3.3517919737938E-04
(PID.TID 0000.0001) %MON dynstat_vvel_del2            =   6.7150435656566E-07
(PID.TID 0000.0001) %MON dynstat_wvel_max             =   6.8045976313238E-04
(PID.TID 0000.0001) %MON dynstat_wvel_min             =  -6.6852495596092E-04
(PID.TID 0000.0001) %MON dynstat_wvel_mean            =   6.0911114147813E-09
(PID.TID 0000.0001) %MON dynstat_wvel_sd              =   1.7215292278245E-05
(PID.TID 0000.0001) %MON dynstat_wvel_del2            =   6.5529105802556E-08
(PID.TID 0000.0001) %MON dynstat_theta_max            =   1.2000000000000E+00
(PID.TID 0000.0001) %MON dynstat_theta_min            =  -1.0000000000000E+00
(PID.TID 0000.0001) %MON dynstat_theta_mean           =   5.6882024620959E-01
(PID.TID 0000.0001) %MON dynstat_theta_sd             =   8.6843101167196E-01
(PID.TID 0000.0001) %MON dynstat_theta_del2           =   2.1314012387873E-06
(PID.TID 0000.0001) %MON dynstat_salt_max             =   3.4700000000000E+01
(PID.TID 0000.0001) %MON dynstat_salt_min             =   3.4000000000000E+01
(PID.TID 0000.0001) %MON dynstat_salt_mean            =   3.4499142275511E+01
(PID.TID 0000.0001) %MON dynstat_salt_sd              =   2.7630908866356E-01
(PID.TID 0000.0001) %MON dynstat_salt_del2            =   8.3805991482721E-07
(PID.TID 0000.0001) %MON advcfl_uvel_max              =   1.7550645255799E-03
(PID.TID 0000.0001) %MON advcfl_vvel_max              =   1.4057214873833E-03
(PID.TID 0000.0001) %MON advcfl_wvel_max              =   3.4022988156619E-03
(PID.TID 0000.0001) %MON advcfl_W_hf_max              =   3.4022988156619E-03
(PID.TID 0000.0001) %MON pe_b_mean                    =  -8.3083767090100E-01
(PID.TID 0000.0001) %MON ke_max                       =   1.0047173767622E-04
(PID.TID 0000.0001) %MON ke_mean                      =   1.8870410922919E-07
(PID.TID 0000.0001) %MON ke_vol                       =   4.2724869372881E+12
(PID.TID 0000.0001) // =======================================================
(PID.TID 0000.0001) // End MONITOR dynamic field statistics
(PID.TID 0000.0001) // =======================================================
(PID.TID 0000.0001) // =======================================================
(PID.TID 0000.0001) // Begin OBCS MONITOR field statistics
(PID.TID 0000.0001) // =======================================================
(PID.TID 0000.0001) %MON obc_N_vVel_max               =   1.4164980816092E-05
(PID.TID 0000.0001) %MON obc_N_vVel_min               =   1.4164980816091E-05
(PID.TID 0000.0001) %MON obc_N_vVel_mean              =   1.4164980816091E-05
(PID.TID 0000.0001) %MON obc_N_vVel_sd                =   4.0097784423207E-12
(PID.TID 0000.0001) %MON obc_N_vVel_Int               =   9.3488873386202E+02
(PID.TID 0000.0001) // =======================================================
(PID.TID 0000.0001) // End OBCS MONITOR field statistics
(PID.TID 0000.0001) // =======================================================
 cg2d: Sum(rhs),rhsMax =   4.51419796790033E+00  2.99926079178044E+02
(PID.TID 0000.0001)      cg2d_init_res =   5.97053864373652E-06
(PID.TID 0000.0001)      cg2d_iters(min,last) =      -1      81
(PID.TID 0000.0001)      cg2d_last_res =   9.39436696049477E-12
(PID.TID 0000.0001) // =======================================================
(PID.TID 0000.0001) // Begin MONITOR dynamic field statistics
(PID.TID 0000.0001) // =======================================================
(PID.TID 0000.0001) %MON time_tsnumber                =                   945
(PID.TID 0000.0001) %MON time_secondsf                =   9.4500000000000E+04
(PID.TID 0000.0001) %MON dynstat_eta_max              =   5.7959278169230E+00
(PID.TID 0000.0001) %MON dynstat_eta_min              =  -1.4198014798262E+01
(PID.TID 0000.0001) %MON dynstat_eta_mean             =  -2.5072698095293E+00
(PID.TID 0000.0001) %MON dynstat_eta_sd               =   4.9510409981993E+00
(PID.TID 0000.0001) %MON dynstat_eta_del2             =   2.0714784959242E-01
(PID.TID 0000.0001) %MON dynstat_uvel_max             =   3.9532499225388E-03
(PID.TID 0000.0001) %MON dynstat_uvel_min             =  -1.7595247643232E-02
(PID.TID 0000.0001) %MON dynstat_uvel_mean            =  -1.1660126873533E-07
(PID.TID 0000.0001) %MON dynstat_uvel_sd              =   5.2117533819145E-04
(PID.TID 0000.0001) %MON dynstat_uvel_del2            =   7.8945263842070E-07
(PID.TID 0000.0001) %MON dynstat_vvel_max             =   1.4091468035205E-02
(PID.TID 0000.0001) %MON dynstat_vvel_min             =  -6.1683660571363E-03
(PID.TID 0000.0001) %MON dynstat_vvel_mean            =   1.4352237078647E-05
(PID.TID 0000.0001) %MON dynstat_vvel_sd              =   3.3586031291228E-04
(PID.TID 0000.0001) %MON dynstat_vvel_del2            =   6.7298772188222E-07
(PID.TID 0000.0001) %MON dynstat_wvel_max             =   6.8241389193419E-04
(PID.TID 0000.0001) %MON dynstat_wvel_min             =  -6.7035395813547E-04
(PID.TID 0000.0001) %MON dynstat_wvel_mean            =   6.1045808360900E-09
(PID.TID 0000.0001) %MON dynstat_wvel_sd              =   1.7151165908090E-05
(PID.TID 0000.0001) %MON dynstat_wvel_del2            =   6.5679286502176E-08
(PID.TID 0000.0001) %MON dynstat_theta_max            =   1.2000000000000E+00
(PID.TID 0000.0001) %MON dynstat_theta_min            =  -1.0000000000000E+00
(PID.TID 0000.0001) %MON dynstat_theta_mean           =   5.6881957333766E-01
(PID.TID 0000.0001) %MON dynstat_theta_sd             =   8.6843064589639E-01
(PID.TID 0000.0001) %MON dynstat_theta_del2           =   2.1361767562971E-06
(PID.TID 0000.0001) %MON dynstat_salt_max             =   3.4700000000000E+01
(PID.TID 0000.0001) %MON dynstat_salt_min             =   3.4000000000000E+01
(PID.TID 0000.0001) %MON dynstat_salt_mean            =   3.4499142006374E+01
(PID.TID 0000.0001) %MON dynstat_salt_sd              =   2.7630894838529E-01
(PID.TID 0000.0001) %MON dynstat_salt_del2            =   8.3993498716801E-07
(PID.TID 0000.0001) %MON advcfl_uvel_max              =   1.7595247643232E-03
(PID.TID 0000.0001) %MON advcfl_vvel_max              =   1.4091468035205E-03
(PID.TID 0000.0001) %MON advcfl_wvel_max              =   3.4120694596710E-03
(PID.TID 0000.0001) %MON advcfl_W_hf_max              =   3.4120694596710E-03
(PID.TID 0000.0001) %MON pe_b_mean                    =  -8.3084039519185E-01
(PID.TID 0000.0001) %MON ke_max                       =   1.0109040537229E-04
(PID.TID 0000.0001) %MON ke_mean                      =   1.8961955823599E-07
(PID.TID 0000.0001) %MON ke_vol                       =   4.2724868772381E+12
(PID.TID 0000.0001) // =======================================================
(PID.TID 0000.0001) // End MONITOR dynamic field statistics
(PID.TID 0000.0001) // =======================================================
(PID.TID 0000.0001) // =======================================================
(PID.TID 0000.0001) // Begin OBCS MONITOR field statistics
(PID.TID 0000.0001) // =======================================================
(PID.TID 0000.0001) %MON obc_N_vVel_max               =   1.4153823365789E-05
(PID.TID 0000.0001) %MON obc_N_vVel_min               =   1.4153823365788E-05
(PID.TID 0000.0001) %MON obc_N_vVel_mean              =   1.4153823365788E-05
(PID.TID 0000.0001) %MON obc_N_vVel_sd                =   3.2792297820051E-12
(PID.TID 0000.0001) %MON obc_N_vVel_Int               =   9.3415234214204E+02
(PID.TID 0000.0001) // =======================================================
(PID.TID 0000.0001) // End OBCS MONITOR field statistics
(PID.TID 0000.0001) // =======================================================
 cg2d: Sum(rhs),rhsMax =   4.51421514705302E+00  2.99926141703149E+02
(PID.TID 0000.0001)      cg2d_init_res =   5.98372871473900E-06
(PID.TID 0000.0001)      cg2d_iters(min,last) =      -1      81
(PID.TID 0000.0001)      cg2d_last_res =   9.41117272226956E-12
(PID.TID 0000.0001) // =======================================================
(PID.TID 0000.0001) // Begin MONITOR dynamic field statistics
(PID.TID 0000.0001) // =======================================================
(PID.TID 0000.0001) %MON time_tsnumber                =                   946
(PID.TID 0000.0001) %MON time_secondsf                =   9.4600000000000E+04
(PID.TID 0000.0001) %MON dynstat_eta_max              =   5.7959250316927E+00
(PID.TID 0000.0001) %MON dynstat_eta_min              =  -1.4198035511995E+01
(PID.TID 0000.0001) %MON dynstat_eta_mean             =  -2.5072798738399E+00
(PID.TID 0000.0001) %MON dynstat_eta_sd               =   4.9510445336019E+00
(PID.TID 0000.0001) %MON dynstat_eta_del2             =   2.0714787328410E-01
(PID.TID 0000.0001) %MON dynstat_uvel_max             =   3.9636630924065E-03
(PID.TID 0000.0001) %MON dynstat_uvel_min             =  -1.7639919473943E-02
(PID.TID 0000.0001) %MON dynstat_uvel_mean            =  -1.1676111291822E-07
(PID.TID 0000.0001) %MON dynstat_uvel_sd              =   5.2252534508956E-04
(PID.TID 0000.0001) %MON dynstat_uvel_del2            =   7.9119650864749E-07
(PID.TID 0000.0001) %MON dynstat_vvel_max             =   1.4125774741454E-02
(PID.TID 0000.0001) %MON dynstat_vvel_min             =  -6.1797544047062E-03
(PID.TID 0000.0001) %MON dynstat_vvel_mean            =   1.4345074582239E-05
(PID.TID 0000.0001) %MON dynstat_vvel_sd              =   3.3653213409256E-04
(PID.TID 0000.0001) %MON dynstat_vvel_del2            =   6.7451810364358E-07
(PID.TID 0000.0001) %MON dynstat_wvel_max             =   6.8437210187920E-04
(PID.TID 0000.0001) %MON dynstat_wvel_min             =  -6.7218698422968E-04
(PID.TID 0000.0001) %MON dynstat_wvel_mean            =   6.1220758968906E-09
(PID.TID 0000.0001) %MON dynstat_wvel_sd              =   1.7074208896393E-05
(PID.TID 0000.0001) %MON dynstat_wvel_del2            =   6.5881452892002E-08
(PID.TID 0000.0001) %MON dynstat_theta_max            =   1.2000000000000E+00
(PID.TID 0000.0001) %MON dynstat_theta_min            =  -1.0000000000000E+00
(PID.TID 0000.0001) %MON dynstat_theta_mean           =   5.6881889905116E-01
(PID.TID 0000.0001) %MON dynstat_theta_sd             =   8.6843027939191E-01
(PID.TID 0000.0001) %MON dynstat_theta_del2           =   2.1409594635265E-06
(PID.TID 0000.0001) %MON dynstat_salt_max             =   3.4700000000000E+01
(PID.TID 0000.0001) %MON dynstat_salt_min             =   3.4000000000000E+01
(PID.TID 0000.0001) %MON dynstat_salt_mean            =   3.4499141736672E+01
(PID.TID 0000.0001) %MON dynstat_salt_sd              =   2.7630880782135E-01
(PID.TID 0000.0001) %MON dynstat_salt_del2            =   8.4181338175443E-07
(PID.TID 0000.0001) %MON advcfl_uvel_max              =   1.7639919473943E-03
(PID.TID 0000.0001) %MON advcfl_vvel_max              =   1.4125774741454E-03
(PID.TID 0000.0001) %MON advcfl_wvel_max              =   3.4218605093960E-03
(PID.TID 0000.0001) %MON advcfl_W_hf_max              =   3.4218605093960E-03
(PID.TID 0000.0001) %MON pe_b_mean                    =  -8.3084311384892E-01
(PID.TID 0000.0001) %MON ke_max                       =   1.0171245267445E-04
(PID.TID 0000.0001) %MON ke_mean                      =   1.9053584461875E-07
(PID.TID 0000.0001) %MON ke_vol                       =   4.2724868173314E+12
(PID.TID 0000.0001) // =======================================================
(PID.TID 0000.0001) // End MONITOR dynamic field statistics
(PID.TID 0000.0001) // =======================================================
(PID.TID 0000.0001) // =======================================================
(PID.TID 0000.0001) // Begin OBCS MONITOR field statistics
(PID.TID 0000.0001) // =======================================================
(PID.TID 0000.0001) %MON obc_N_vVel_max               =   1.4145519705070E-05
(PID.TID 0000.0001) %MON obc_N_vVel_min               =   1.4145519705070E-05
(PID.TID 0000.0001) %MON obc_N_vVel_mean              =   1.4145519705070E-05
(PID.TID 0000.0001) %MON obc_N_vVel_sd                =  -1.1994118882019E-23
(PID.TID 0000.0001) %MON obc_N_vVel_Int               =   9.3360430053464E+02
(PID.TID 0000.0001) // =======================================================
(PID.TID 0000.0001) // End OBCS MONITOR field statistics
(PID.TID 0000.0001) // =======================================================
 cg2d: Sum(rhs),rhsMax =   4.51423228461660E+00  2.99926204870581E+02
(PID.TID 0000.0001)      cg2d_init_res =   5.99973227774281E-06
(PID.TID 0000.0001)      cg2d_iters(min,last) =      -1      81
(PID.TID 0000.0001)      cg2d_last_res =   9.42912544938014E-12
(PID.TID 0000.0001) // =======================================================
(PID.TID 0000.0001) // Begin MONITOR dynamic field statistics
(PID.TID 0000.0001) // =======================================================
(PID.TID 0000.0001) %MON time_tsnumber                =                   947
(PID.TID 0000.0001) %MON time_secondsf                =   9.4700000000000E+04
(PID.TID 0000.0001) %MON dynstat_eta_max              =   5.7959222923983E+00
(PID.TID 0000.0001) %MON dynstat_eta_min              =  -1.4198056206359E+01
(PID.TID 0000.0001) %MON dynstat_eta_mean             =  -2.5072899204246E+00
(PID.TID 0000.0001) %MON dynstat_eta_sd               =   4.9510480666940E+00
(PID.TID 0000.0001) %MON dynstat_eta_del2             =   2.0714789703262E-01
(PID.TID 0000.0001) %MON dynstat_uvel_max             =   3.9740978841571E-03
(PID.TID 0000.0001) %MON dynstat_uvel_min             =  -1.7684660656606E-02
(PID.TID 0000.0001) %MON dynstat_uvel_mean            =  -1.1692287256389E-07
(PID.TID 0000.0001) %MON dynstat_uvel_sd              =   5.2387862980730E-04
(PID.TID 0000.0001) %MON dynstat_uvel_del2            =   7.9294525862501E-07
(PID.TID 0000.0001) %MON dynstat_vvel_max             =   1.4160134971720E-02
(PID.TID 0000.0001) %MON dynstat_vvel_min             =  -6.1911553272846E-03
(PID.TID 0000.0001) %MON dynstat_vvel_mean            =   1.4341189807664E-05
(PID.TID 0000.0001) %MON dynstat_vvel_sd              =   3.3719585887366E-04
(PID.TID 0000.0001) %MON dynstat_vvel_del2            =   6.7609006707054E-07
(PID.TID 0000.0001) %MON dynstat_wvel_max             =   6.8633439466808E-04
(PID.TID 0000.0001) %MON dynstat_wvel_min             =  -6.7402403606761E-04
(PID.TID 0000.0001) %MON dynstat_wvel_mean            =   6.1435736374520E-09
(PID.TID 0000.0001) %MON dynstat_wvel_sd              =   1.6984291281065E-05
(PID.TID 0000.0001) %MON dynstat_wvel_del2            =   6.6112766818655E-08
(PID.TID 0000.0001) %MON dynstat_theta_max            =   1.2000000000000E+00
(PID.TID 0000.0001) %MON dynstat_theta_min            =  -1.0000000000000E+00
(PID.TID 0000.0001) %MON dynstat_theta_mean           =   5.6881822334397E-01
(PID.TID 0000.0001) %MON dynstat_theta_sd             =   8.6842991216030E-01
(PID.TID 0000.0001) %MON dynstat_theta_del2           =   2.1457496930032E-06
(PID.TID 0000.0001) %MON dynstat_salt_max             =   3.4700000000000E+01
(PID.TID 0000.0001) %MON dynstat_salt_min             =   3.4000000000000E+01
(PID.TID 0000.0001) %MON dynstat_salt_mean            =   3.4499141466401E+01
(PID.TID 0000.0001) %MON dynstat_salt_sd              =   2.7630866697229E-01
(PID.TID 0000.0001) %MON dynstat_salt_del2            =   8.4369508222627E-07
(PID.TID 0000.0001) %MON advcfl_uvel_max              =   1.7684660656606E-03
(PID.TID 0000.0001) %MON advcfl_vvel_max              =   1.4160134971720E-03
(PID.TID 0000.0001) %MON advcfl_wvel_max              =   3.4316719733404E-03
(PID.TID 0000.0001) %MON advcfl_W_hf_max              =   3.4316719733404E-03
(PID.TID 0000.0001) %MON pe_b_mean                    =  -8.3084582771550E-01
(PID.TID 0000.0001) %MON ke_max                       =   1.0233789427058E-04
(PID.TID 0000.0001) %MON ke_mean                      =   1.9145336873195E-07
(PID.TID 0000.0001) %MON ke_vol                       =   4.2724867575494E+12
(PID.TID 0000.0001) // =======================================================
(PID.TID 0000.0001) // End MONITOR dynamic field statistics
(PID.TID 0000.0001) // =======================================================
(PID.TID 0000.0001) // =======================================================
(PID.TID 0000.0001) // Begin OBCS MONITOR field statistics
(PID.TID 0000.0001) // =======================================================
(PID.TID 0000.0001) %MON obc_N_vVel_max               =   1.4140168996584E-05
(PID.TID 0000.0001) %MON obc_N_vVel_min               =   1.4140168996584E-05
(PID.TID 0000.0001) %MON obc_N_vVel_mean              =   1.4140168996584E-05
(PID.TID 0000.0001) %MON obc_N_vVel_sd                =  -1.0003715533063E-23
(PID.TID 0000.0001) %MON obc_N_vVel_Int               =   9.3325115377458E+02
(PID.TID 0000.0001) // =======================================================
(PID.TID 0000.0001) // End OBCS MONITOR field statistics
(PID.TID 0000.0001) // =======================================================
 cg2d: Sum(rhs),rhsMax =   4.51424938544318E+00  2.99926268759371E+02
(PID.TID 0000.0001)      cg2d_init_res =   6.01827368651163E-06
(PID.TID 0000.0001)      cg2d_iters(min,last) =      -1      81
(PID.TID 0000.0001)      cg2d_last_res =   9.44823861820194E-12
(PID.TID 0000.0001) // =======================================================
(PID.TID 0000.0001) // Begin MONITOR dynamic field statistics
(PID.TID 0000.0001) // =======================================================
(PID.TID 0000.0001) %MON time_tsnumber                =                   948
(PID.TID 0000.0001) %MON time_secondsf                =   9.4800000000000E+04
(PID.TID 0000.0001) %MON dynstat_eta_max              =   5.7959195932394E+00
(PID.TID 0000.0001) %MON dynstat_eta_min              =  -1.4198076887299E+01
(PID.TID 0000.0001) %MON dynstat_eta_mean             =  -2.5072999526394E+00
(PID.TID 0000.0001) %MON dynstat_eta_sd               =   4.9510515986452E+00
(PID.TID 0000.0001) %MON dynstat_eta_del2             =   2.0714792083920E-01
(PID.TID 0000.0001) %MON dynstat_uvel_max             =   3.9845543285928E-03
(PID.TID 0000.0001) %MON dynstat_uvel_min             =  -1.7729471098320E-02
(PID.TID 0000.0001) %MON dynstat_uvel_mean            =  -1.1708574139370E-07
(PID.TID 0000.0001) %MON dynstat_uvel_sd              =   5.2523519228183E-04
(PID.TID 0000.0001) %MON dynstat_uvel_del2            =   7.9469889243023E-07
(PID.TID 0000.0001) %MON dynstat_vvel_max             =   1.4194548702101E-02
(PID.TID 0000.0001) %MON dynstat_vvel_min             =  -6.2025688288303E-03
(PID.TID 0000.0001) %MON dynstat_vvel_mean            =   1.4340664545606E-05
(PID.TID 0000.0001) %MON dynstat_vvel_sd              =   3.3785286408745E-04
(PID.TID 0000.0001) %MON dynstat_vvel_del2            =   6.7769738181978E-07
(PID.TID 0000.0001) %MON dynstat_wvel_max             =   6.8830077193715E-04
(PID.TID 0000.0001) %MON dynstat_wvel_min             =  -6.7586511517646E-04
(PID.TID 0000.0001) %MON dynstat_wvel_mean            =   6.1690244258661E-09
(PID.TID 0000.0001) %MON dynstat_wvel_sd              =   1.6881502740357E-05
(PID.TID 0000.0001) %MON dynstat_wvel_del2            =   6.6349021122823E-08
(PID.TID 0000.0001) %MON dynstat_theta_max            =   1.2000000000000E+00
(PID.TID 0000.0001) %MON dynstat_theta_min            =  -1.0000000000000E+00
(PID.TID 0000.0001) %MON dynstat_theta_mean           =   5.6881754621038E-01
(PID.TID 0000.0001) %MON dynstat_theta_sd             =   8.6842954420450E-01
(PID.TID 0000.0001) %MON dynstat_theta_del2           =   2.1505475768912E-06
(PID.TID 0000.0001) %MON dynstat_salt_max             =   3.4700000000000E+01
(PID.TID 0000.0001) %MON dynstat_salt_min             =   3.4000000000000E+01
(PID.TID 0000.0001) %MON dynstat_salt_mean            =   3.4499141195560E+01
(PID.TID 0000.0001) %MON dynstat_salt_sd              =   2.7630852583883E-01
(PID.TID 0000.0001) %MON dynstat_salt_del2            =   8.4557967098483E-07
(PID.TID 0000.0001) %MON advcfl_uvel_max              =   1.7729471098320E-03
(PID.TID 0000.0001) %MON advcfl_vvel_max              =   1.4194548702101E-03
(PID.TID 0000.0001) %MON advcfl_wvel_max              =   3.4415038596857E-03
(PID.TID 0000.0001) %MON advcfl_W_hf_max              =   3.4415038596857E-03
(PID.TID 0000.0001) %MON pe_b_mean                    =  -8.3084853765461E-01
(PID.TID 0000.0001) %MON ke_max                       =   1.0296674488144E-04
(PID.TID 0000.0001) %MON ke_mean                      =   1.9237259371802E-07
(PID.TID 0000.0001) %MON ke_vol                       =   4.2724866978727E+12
(PID.TID 0000.0001) // =======================================================
(PID.TID 0000.0001) // End MONITOR dynamic field statistics
(PID.TID 0000.0001) // =======================================================
(PID.TID 0000.0001) // =======================================================
(PID.TID 0000.0001) // Begin OBCS MONITOR field statistics
(PID.TID 0000.0001) // =======================================================
(PID.TID 0000.0001) %MON obc_N_vVel_max               =   1.4137854894404E-05
(PID.TID 0000.0001) %MON obc_N_vVel_min               =   1.4137854894404E-05
(PID.TID 0000.0001) %MON obc_N_vVel_mean              =   1.4137854894404E-05
(PID.TID 0000.0001) %MON obc_N_vVel_sd                =   2.8216331079400E-12
(PID.TID 0000.0001) %MON obc_N_vVel_Int               =   9.3309842303066E+02
(PID.TID 0000.0001) // =======================================================
(PID.TID 0000.0001) // End OBCS MONITOR field statistics
(PID.TID 0000.0001) // =======================================================
 cg2d: Sum(rhs),rhsMax =   4.51426645458945E+00  2.99926333443767E+02
(PID.TID 0000.0001)      cg2d_init_res =   6.03904290393693E-06
(PID.TID 0000.0001)      cg2d_iters(min,last) =      -1      81
(PID.TID 0000.0001)      cg2d_last_res =   9.46828016054049E-12
(PID.TID 0000.0001) // =======================================================
(PID.TID 0000.0001) // Begin MONITOR dynamic field statistics
(PID.TID 0000.0001) // =======================================================
(PID.TID 0000.0001) %MON time_tsnumber                =                   949
(PID.TID 0000.0001) %MON time_secondsf                =   9.4900000000000E+04
(PID.TID 0000.0001) %MON dynstat_eta_max              =   5.7959169283005E+00
(PID.TID 0000.0001) %MON dynstat_eta_min              =  -1.4198097560890E+01
(PID.TID 0000.0001) %MON dynstat_eta_mean             =  -2.5073099739133E+00
(PID.TID 0000.0001) %MON dynstat_eta_sd               =   4.9510551306245E+00
(PID.TID 0000.0001) %MON dynstat_eta_del2             =   2.0714794470453E-01
(PID.TID 0000.0001) %MON dynstat_uvel_max             =   3.9950324578442E-03
(PID.TID 0000.0001) %MON dynstat_uvel_min             =  -1.7774350704599E-02
(PID.TID 0000.0001) %MON dynstat_uvel_mean            =  -1.1724888106012E-07
(PID.TID 0000.0001) %MON dynstat_uvel_sd              =   5.2659503119475E-04
(PID.TID 0000.0001) %MON dynstat_uvel_del2            =   7.9645740800005E-07
(PID.TID 0000.0001) %MON dynstat_vvel_max             =   1.4229015905582E-02
(PID.TID 0000.0001) %MON dynstat_vvel_min             =  -6.2139949148357E-03
(PID.TID 0000.0001) %MON dynstat_vvel_mean            =   1.4343561896745E-05
(PID.TID 0000.0001) %MON dynstat_vvel_sd              =   3.3850470259295E-04
(PID.TID 0000.0001) %MON dynstat_vvel_del2            =   6.7933375984038E-07
(PID.TID 0000.0001) %MON dynstat_wvel_max             =   6.9027123529639E-04
(PID.TID 0000.0001) %MON dynstat_wvel_min             =  -6.7771022295684E-04
(PID.TID 0000.0001) %MON dynstat_wvel_mean            =   6.1983539042094E-09
(PID.TID 0000.0001) %MON dynstat_wvel_sd              =   1.6766363699338E-05
(PID.TID 0000.0001) %MON dynstat_wvel_del2            =   6.6567670626921E-08
(PID.TID 0000.0001) %MON dynstat_theta_max            =   1.2000000000000E+00
(PID.TID 0000.0001) %MON dynstat_theta_min            =  -1.0000000000000E+00
(PID.TID 0000.0001) %MON dynstat_theta_mean           =   5.6881686764502E-01
(PID.TID 0000.0001) %MON dynstat_theta_sd             =   8.6842917552527E-01
(PID.TID 0000.0001) %MON dynstat_theta_del2           =   2.1553516932879E-06
(PID.TID 0000.0001) %MON dynstat_salt_max             =   3.4700000000000E+01
(PID.TID 0000.0001) %MON dynstat_salt_min             =   3.4000000000000E+01
(PID.TID 0000.0001) %MON dynstat_salt_mean            =   3.4499140924148E+01
(PID.TID 0000.0001) %MON dynstat_salt_sd              =   2.7630838442134E-01
(PID.TID 0000.0001) %MON dynstat_salt_del2            =   8.4746723560322E-07
(PID.TID 0000.0001) %MON advcfl_uvel_max              =   1.7774350704599E-03
(PID.TID 0000.0001) %MON advcfl_vvel_max              =   1.4229015905582E-03
(PID.TID 0000.0001) %MON advcfl_wvel_max              =   3.4513561764820E-03
(PID.TID 0000.0001) %MON advcfl_W_hf_max              =   3.4513561764820E-03
(PID.TID 0000.0001) %MON pe_b_mean                    =  -8.3085124454358E-01
(PID.TID 0000.0001) %MON ke_max                       =   1.0359901926082E-04
(PID.TID 0000.0001) %MON ke_mean                      =   1.9329404522401E-07
(PID.TID 0000.0001) %MON ke_vol                       =   4.2724866382813E+12
(PID.TID 0000.0001) // =======================================================
(PID.TID 0000.0001) // End MONITOR dynamic field statistics
(PID.TID 0000.0001) // =======================================================
(PID.TID 0000.0001) // =======================================================
(PID.TID 0000.0001) // Begin OBCS MONITOR field statistics
(PID.TID 0000.0001) // =======================================================
(PID.TID 0000.0001) %MON obc_N_vVel_max               =   1.4138644407760E-05
(PID.TID 0000.0001) %MON obc_N_vVel_min               =   1.4138644407759E-05
(PID.TID 0000.0001) %MON obc_N_vVel_mean              =   1.4138644407760E-05
(PID.TID 0000.0001) %MON obc_N_vVel_sd                =  -5.1181800401719E-24
(PID.TID 0000.0001) %MON obc_N_vVel_Int               =   9.3315053091213E+02
(PID.TID 0000.0001) // =======================================================
(PID.TID 0000.0001) // End OBCS MONITOR field statistics
(PID.TID 0000.0001) // =======================================================
 cg2d: Sum(rhs),rhsMax =   4.51428349724387E+00  2.99926398995984E+02
(PID.TID 0000.0001)      cg2d_init_res =   6.06179413365286E-06
(PID.TID 0000.0001)      cg2d_iters(min,last) =      -1      81
(PID.TID 0000.0001)      cg2d_last_res =   9.48958720670585E-12
(PID.TID 0000.0001) // =======================================================
(PID.TID 0000.0001) // Begin MONITOR dynamic field statistics
(PID.TID 0000.0001) // =======================================================
(PID.TID 0000.0001) %MON time_tsnumber                =                   950
(PID.TID 0000.0001) %MON time_secondsf                =   9.5000000000000E+04
(PID.TID 0000.0001) %MON dynstat_eta_max              =   5.7959142916002E+00
(PID.TID 0000.0001) %MON dynstat_eta_min              =  -1.4198118233283E+01
(PID.TID 0000.0001) %MON dynstat_eta_mean             =  -2.5073199877321E+00
(PID.TID 0000.0001) %MON dynstat_eta_sd               =   4.9510586638224E+00
(PID.TID 0000.0001) %MON dynstat_eta_del2             =   2.0714796863048E-01
(PID.TID 0000.0001) %MON dynstat_uvel_max             =   4.0055323054631E-03
(PID.TID 0000.0001) %MON dynstat_uvel_min             =  -1.7819299379649E-02
(PID.TID 0000.0001) %MON dynstat_uvel_mean            =  -1.1741137757996E-07
(PID.TID 0000.0001) %MON dynstat_uvel_sd              =   5.2795814415564E-04
(PID.TID 0000.0001) %MON dynstat_uvel_del2            =   7.9822081797720E-07
(PID.TID 0000.0001) %MON dynstat_vvel_max             =   1.4263536551751E-02
(PID.TID 0000.0001) %MON dynstat_vvel_min             =  -6.2254335926166E-03
(PID.TID 0000.0001) %MON dynstat_vvel_mean            =   1.4349925249445E-05
(PID.TID 0000.0001) %MON dynstat_vvel_sd              =   3.3915309269353E-04
(PID.TID 0000.0001) %MON dynstat_vvel_del2            =   6.8099351815871E-07
(PID.TID 0000.0001) %MON dynstat_wvel_max             =   6.9224578631808E-04
(PID.TID 0000.0001) %MON dynstat_wvel_min             =  -6.7955936052399E-04
(PID.TID 0000.0001) %MON dynstat_wvel_mean            =   6.2314587014500E-09
(PID.TID 0000.0001) %MON dynstat_wvel_sd              =   1.6640021860938E-05
(PID.TID 0000.0001) %MON dynstat_wvel_del2            =   6.6750535108525E-08
(PID.TID 0000.0001) %MON dynstat_theta_max            =   1.2000000000000E+00
(PID.TID 0000.0001) %MON dynstat_theta_min            =  -1.0000000000000E+00
(PID.TID 0000.0001) %MON dynstat_theta_mean           =   5.6881618764311E-01
(PID.TID 0000.0001) %MON dynstat_theta_sd             =   8.6842880612290E-01
(PID.TID 0000.0001) %MON dynstat_theta_del2           =   2.1601609058472E-06
(PID.TID 0000.0001) %MON dynstat_salt_max             =   3.4700000000000E+01
(PID.TID 0000.0001) %MON dynstat_salt_min             =   3.4000000000000E+01
(PID.TID 0000.0001) %MON dynstat_salt_mean            =   3.4499140652162E+01
(PID.TID 0000.0001) %MON dynstat_salt_sd              =   2.7630824271988E-01
(PID.TID 0000.0001) %MON dynstat_salt_del2            =   8.4935717072162E-07
(PID.TID 0000.0001) %MON advcfl_uvel_max              =   1.7819299379649E-03
(PID.TID 0000.0001) %MON advcfl_vvel_max              =   1.4263536551751E-03
(PID.TID 0000.0001) %MON advcfl_wvel_max              =   3.4612289315904E-03
(PID.TID 0000.0001) %MON advcfl_W_hf_max              =   3.4612289315904E-03
(PID.TID 0000.0001) %MON pe_b_mean                    =  -8.3085394926951E-01
(PID.TID 0000.0001) %MON ke_max                       =   1.0423473219754E-04
(PID.TID 0000.0001) %MON ke_mean                      =   1.9421830837366E-07
(PID.TID 0000.0001) %MON ke_vol                       =   4.2724865787550E+12
(PID.TID 0000.0001) // =======================================================
(PID.TID 0000.0001) // End MONITOR dynamic field statistics
(PID.TID 0000.0001) // =======================================================
(PID.TID 0000.0001) // =======================================================
(PID.TID 0000.0001) // Begin OBCS MONITOR field statistics
(PID.TID 0000.0001) // =======================================================
(PID.TID 0000.0001) %MON obc_N_vVel_max               =   1.4142587067854E-05
(PID.TID 0000.0001) %MON obc_N_vVel_min               =   1.4142587067854E-05
(PID.TID 0000.0001) %MON obc_N_vVel_mean              =   1.4142587067854E-05
(PID.TID 0000.0001) %MON obc_N_vVel_sd                =  -1.7370792863614E-23
(PID.TID 0000.0001) %MON obc_N_vVel_Int               =   9.3341074647836E+02
(PID.TID 0000.0001) // =======================================================
(PID.TID 0000.0001) // End OBCS MONITOR field statistics
(PID.TID 0000.0001) // =======================================================
 cg2d: Sum(rhs),rhsMax =   4.51430051871128E+00  2.99926465484116E+02
(PID.TID 0000.0001)      cg2d_init_res =   6.08627527353726E-06
(PID.TID 0000.0001)      cg2d_iters(min,last) =      -1      81
(PID.TID 0000.0001)      cg2d_last_res =   9.51180714152592E-12
(PID.TID 0000.0001) // =======================================================
(PID.TID 0000.0001) // Begin MONITOR dynamic field statistics
(PID.TID 0000.0001) // =======================================================
(PID.TID 0000.0001) %MON time_tsnumber                =                   951
(PID.TID 0000.0001) %MON time_secondsf                =   9.5100000000000E+04
(PID.TID 0000.0001) %MON dynstat_eta_max              =   5.7959116771209E+00
(PID.TID 0000.0001) %MON dynstat_eta_min              =  -1.4198138910664E+01
(PID.TID 0000.0001) %MON dynstat_eta_mean             =  -2.5073299976115E+00
(PID.TID 0000.0001) %MON dynstat_eta_sd               =   4.9510621994081E+00
(PID.TID 0000.0001) %MON dynstat_eta_del2             =   2.0714799261813E-01
(PID.TID 0000.0001) %MON dynstat_uvel_max             =   4.0160539064722E-03
(PID.TID 0000.0001) %MON dynstat_uvel_min             =  -1.7864317026188E-02
(PID.TID 0000.0001) %MON dynstat_uvel_mean            =  -1.1757225763337E-07
(PID.TID 0000.0001) %MON dynstat_uvel_sd              =   5.2932452820707E-04
(PID.TID 0000.0001) %MON dynstat_uvel_del2            =   7.9998913547202E-07
(PID.TID 0000.0001) %MON dynstat_vvel_max             =   1.4298110606781E-02
(PID.TID 0000.0001) %MON dynstat_vvel_min             =  -6.2368848713881E-03
(PID.TID 0000.0001) %MON dynstat_vvel_mean            =   1.4359777365893E-05
(PID.TID 0000.0001) %MON dynstat_vvel_sd              =   3.3979989916088E-04
(PID.TID 0000.0001) %MON dynstat_vvel_del2            =   6.8267212937862E-07
(PID.TID 0000.0001) %MON dynstat_wvel_max             =   6.9422442653103E-04
(PID.TID 0000.0001) %MON dynstat_wvel_min             =  -6.8141252873861E-04
(PID.TID 0000.0001) %MON dynstat_wvel_mean            =   6.2682077414506E-09
(PID.TID 0000.0001) %MON dynstat_wvel_sd              =   1.6504411838037E-05
(PID.TID 0000.0001) %MON dynstat_wvel_del2            =   6.6885932260836E-08
(PID.TID 0000.0001) %MON dynstat_theta_max            =   1.2000000000000E+00
(PID.TID 0000.0001) %MON dynstat_theta_min            =  -1.0000000000000E+00
(PID.TID 0000.0001) %MON dynstat_theta_mean           =   5.6881550619989E-01
(PID.TID 0000.0001) %MON dynstat_theta_sd             =   8.6842843599907E-01
(PID.TID 0000.0001) %MON dynstat_theta_del2           =   2.1649716815234E-06
(PID.TID 0000.0001) %MON dynstat_salt_max             =   3.4700000000000E+01
(PID.TID 0000.0001) %MON dynstat_salt_min             =   3.4000000000000E+01
(PID.TID 0000.0001) %MON dynstat_salt_mean            =   3.4499140379600E+01
(PID.TID 0000.0001) %MON dynstat_salt_sd              =   2.7630810073458E-01
(PID.TID 0000.0001) %MON dynstat_salt_del2            =   8.5124845653026E-07
(PID.TID 0000.0001) %MON advcfl_uvel_max              =   1.7864317026188E-03
(PID.TID 0000.0001) %MON advcfl_vvel_max              =   1.4298110606781E-03
(PID.TID 0000.0001) %MON advcfl_wvel_max              =   3.4711221326552E-03
(PID.TID 0000.0001) %MON advcfl_W_hf_max              =   3.4711221326552E-03
(PID.TID 0000.0001) %MON pe_b_mean                    =  -8.3085665272212E-01
(PID.TID 0000.0001) %MON ke_max                       =   1.0487389851503E-04
(PID.TID 0000.0001) %MON ke_mean                      =   1.9514602202977E-07
(PID.TID 0000.0001) %MON ke_vol                       =   4.2724865192729E+12
(PID.TID 0000.0001) // =======================================================
(PID.TID 0000.0001) // End MONITOR dynamic field statistics
(PID.TID 0000.0001) // =======================================================
(PID.TID 0000.0001) // =======================================================
(PID.TID 0000.0001) // Begin OBCS MONITOR field statistics
(PID.TID 0000.0001) // =======================================================
(PID.TID 0000.0001) %MON obc_N_vVel_max               =   1.4149714126188E-05
(PID.TID 0000.0001) %MON obc_N_vVel_min               =   1.4149714126188E-05
(PID.TID 0000.0001) %MON obc_N_vVel_mean              =   1.4149714126188E-05
(PID.TID 0000.0001) %MON obc_N_vVel_sd                =  -5.6868667113021E-25
(PID.TID 0000.0001) %MON obc_N_vVel_Int               =   9.3388113232841E+02
(PID.TID 0000.0001) // =======================================================
(PID.TID 0000.0001) // End OBCS MONITOR field statistics
(PID.TID 0000.0001) // =======================================================
 cg2d: Sum(rhs),rhsMax =   4.51431752438230E+00  2.99926532972115E+02
(PID.TID 0000.0001)      cg2d_init_res =   6.11228907372933E-06
(PID.TID 0000.0001)      cg2d_iters(min,last) =      -1      81
(PID.TID 0000.0001)      cg2d_last_res =   9.53479556538187E-12
(PID.TID 0000.0001) // =======================================================
(PID.TID 0000.0001) // Begin MONITOR dynamic field statistics
(PID.TID 0000.0001) // =======================================================
(PID.TID 0000.0001) %MON time_tsnumber                =                   952
(PID.TID 0000.0001) %MON time_secondsf                =   9.5200000000000E+04
(PID.TID 0000.0001) %MON dynstat_eta_max              =   5.7959090788433E+00
(PID.TID 0000.0001) %MON dynstat_eta_min              =  -1.4198159599239E+01
(PID.TID 0000.0001) %MON dynstat_eta_mean             =  -2.5073400070801E+00
(PID.TID 0000.0001) %MON dynstat_eta_sd               =   4.9510657385419E+00
(PID.TID 0000.0001) %MON dynstat_eta_del2             =   2.0714801666866E-01
(PID.TID 0000.0001) %MON dynstat_uvel_max             =   4.0265972972300E-03
(PID.TID 0000.0001) %MON dynstat_uvel_min             =  -1.7909403545250E-02
(PID.TID 0000.0001) %MON dynstat_uvel_mean            =  -1.1773048954224E-07
(PID.TID 0000.0001) %MON dynstat_uvel_sd              =   5.3069418016162E-04
(PID.TID 0000.0001) %MON dynstat_uvel_del2            =   8.0176237665457E-07
(PID.TID 0000.0001) %MON dynstat_vvel_max             =   1.4332738033187E-02
(PID.TID 0000.0001) %MON dynstat_vvel_min             =  -6.2483487622593E-03
(PID.TID 0000.0001) %MON dynstat_vvel_mean            =   1.4373119571414E-05
(PID.TID 0000.0001) %MON dynstat_vvel_sd              =   3.4044710294192E-04
(PID.TID 0000.0001) %MON dynstat_vvel_del2            =   6.8436657553569E-07
(PID.TID 0000.0001) %MON dynstat_wvel_max             =   6.9620715743602E-04
(PID.TID 0000.0001) %MON dynstat_wvel_min             =  -6.8326972826096E-04
(PID.TID 0000.0001) %MON dynstat_wvel_mean            =   6.3084453149184E-09
(PID.TID 0000.0001) %MON dynstat_wvel_sd              =   1.6362357417293E-05
(PID.TID 0000.0001) %MON dynstat_wvel_del2            =   6.6970072434427E-08
(PID.TID 0000.0001) %MON dynstat_theta_max            =   1.2000000000000E+00
(PID.TID 0000.0001) %MON dynstat_theta_min            =  -1.0000000000000E+00
(PID.TID 0000.0001) %MON dynstat_theta_mean           =   5.6881482331134E-01
(PID.TID 0000.0001) %MON dynstat_theta_sd             =   8.6842806514985E-01
(PID.TID 0000.0001) %MON dynstat_theta_del2           =   2.1697787601752E-06
(PID.TID 0000.0001) %MON dynstat_salt_max             =   3.4700000000000E+01
(PID.TID 0000.0001) %MON dynstat_salt_min             =   3.4000000000000E+01
(PID.TID 0000.0001) %MON dynstat_salt_mean            =   3.4499140106462E+01
(PID.TID 0000.0001) %MON dynstat_salt_sd              =   2.7630795846449E-01
(PID.TID 0000.0001) %MON dynstat_salt_del2            =   8.5313964232365E-07
(PID.TID 0000.0001) %MON advcfl_uvel_max              =   1.7909403545250E-03
(PID.TID 0000.0001) %MON advcfl_vvel_max              =   1.4332738033187E-03
(PID.TID 0000.0001) %MON advcfl_wvel_max              =   3.4810357871801E-03
(PID.TID 0000.0001) %MON advcfl_W_hf_max              =   3.4810357871801E-03
(PID.TID 0000.0001) %MON pe_b_mean                    =  -8.3085935579002E-01
(PID.TID 0000.0001) %MON ke_max                       =   1.0551653306786E-04
(PID.TID 0000.0001) %MON ke_mean                      =   1.9607786907120E-07
(PID.TID 0000.0001) %MON ke_vol                       =   4.2724864598142E+12
(PID.TID 0000.0001) // =======================================================
(PID.TID 0000.0001) // End MONITOR dynamic field statistics
(PID.TID 0000.0001) // =======================================================
(PID.TID 0000.0001) // =======================================================
(PID.TID 0000.0001) // Begin OBCS MONITOR field statistics
(PID.TID 0000.0001) // =======================================================
(PID.TID 0000.0001) %MON obc_N_vVel_max               =   1.4160037434242E-05
(PID.TID 0000.0001) %MON obc_N_vVel_min               =   1.4160037434242E-05
(PID.TID 0000.0001) %MON obc_N_vVel_mean              =   1.4160037434242E-05
(PID.TID 0000.0001) %MON obc_N_vVel_sd                =  -1.4372263143109E-23
(PID.TID 0000.0001) %MON obc_N_vVel_Int               =   9.3456247066000E+02
(PID.TID 0000.0001) // =======================================================
(PID.TID 0000.0001) // End OBCS MONITOR field statistics
(PID.TID 0000.0001) // =======================================================
 cg2d: Sum(rhs),rhsMax =   4.51433451971923E+00  2.99926601518365E+02
(PID.TID 0000.0001)      cg2d_init_res =   6.13967096666234E-06
(PID.TID 0000.0001)      cg2d_iters(min,last) =      -1      81
(PID.TID 0000.0001)      cg2d_last_res =   9.55828073861435E-12
(PID.TID 0000.0001) // =======================================================
(PID.TID 0000.0001) // Begin MONITOR dynamic field statistics
(PID.TID 0000.0001) // =======================================================
(PID.TID 0000.0001) %MON time_tsnumber                =                   953
(PID.TID 0000.0001) %MON time_secondsf                =   9.5300000000000E+04
(PID.TID 0000.0001) %MON dynstat_eta_max              =   5.7959064907980E+00
(PID.TID 0000.0001) %MON dynstat_eta_min              =  -1.4198180305170E+01
(PID.TID 0000.0001) %MON dynstat_eta_mean             =  -2.5073500196601E+00
(PID.TID 0000.0001) %MON dynstat_eta_sd               =   4.9510692823572E+00
(PID.TID 0000.0001) %MON dynstat_eta_del2             =   2.0714804078304E-01
(PID.TID 0000.0001) %MON dynstat_uvel_max             =   4.0371625157150E-03
(PID.TID 0000.0001) %MON dynstat_uvel_min             =  -1.7954558836283E-02
(PID.TID 0000.0001) %MON dynstat_uvel_mean            =  -1.1788499258450E-07
(PID.TID 0000.0001) %MON dynstat_uvel_sd              =   5.3206709696402E-04
(PID.TID 0000.0001) %MON dynstat_uvel_del2            =   8.0354056095952E-07
(PID.TID 0000.0001) %MON dynstat_vvel_max             =   1.4367418789683E-02
(PID.TID 0000.0001) %MON dynstat_vvel_min             =  -6.2598252782502E-03
(PID.TID 0000.0001) %MON dynstat_vvel_mean            =   1.4389931112467E-05
(PID.TID 0000.0001) %MON dynstat_vvel_sd              =   3.4109675925804E-04
(PID.TID 0000.0001) %MON dynstat_vvel_del2            =   6.8607547955111E-07
(PID.TID 0000.0001) %MON dynstat_wvel_max             =   6.9819398049197E-04
(PID.TID 0000.0001) %MON dynstat_wvel_min             =  -6.8513095942845E-04
(PID.TID 0000.0001) %MON dynstat_wvel_mean            =   6.3519857063708E-09
(PID.TID 0000.0001) %MON dynstat_wvel_sd              =   1.6217598794856E-05
(PID.TID 0000.0001) %MON dynstat_wvel_del2            =   6.7007628391910E-08
(PID.TID 0000.0001) %MON dynstat_theta_max            =   1.2000000000000E+00
(PID.TID 0000.0001) %MON dynstat_theta_min            =  -1.0000000000000E+00
(PID.TID 0000.0001) %MON dynstat_theta_mean           =   5.6881413897434E-01
(PID.TID 0000.0001) %MON dynstat_theta_sd             =   8.6842769357842E-01
(PID.TID 0000.0001) %MON dynstat_theta_del2           =   2.1745752519798E-06
(PID.TID 0000.0001) %MON dynstat_salt_max             =   3.4700000000000E+01
(PID.TID 0000.0001) %MON dynstat_salt_min             =   3.4000000000000E+01
(PID.TID 0000.0001) %MON dynstat_salt_mean            =   3.4499139832745E+01
(PID.TID 0000.0001) %MON dynstat_salt_sd              =   2.7630781591028E-01
(PID.TID 0000.0001) %MON dynstat_salt_del2            =   8.5502885802151E-07
(PID.TID 0000.0001) %MON advcfl_uvel_max              =   1.7954558836283E-03
(PID.TID 0000.0001) %MON advcfl_vvel_max              =   1.4367418789683E-03
(PID.TID 0000.0001) %MON advcfl_wvel_max              =   3.4909699024598E-03
(PID.TID 0000.0001) %MON advcfl_W_hf_max              =   3.4909699024598E-03
(PID.TID 0000.0001) %MON pe_b_mean                    =  -8.3086205935461E-01
(PID.TID 0000.0001) %MON ke_max                       =   1.0616265074286E-04
(PID.TID 0000.0001) %MON ke_mean                      =   1.9701456264368E-07
(PID.TID 0000.0001) %MON ke_vol                       =   4.2724864003579E+12
(PID.TID 0000.0001) // =======================================================
(PID.TID 0000.0001) // End MONITOR dynamic field statistics
(PID.TID 0000.0001) // =======================================================
(PID.TID 0000.0001) // =======================================================
(PID.TID 0000.0001) // Begin OBCS MONITOR field statistics
(PID.TID 0000.0001) // =======================================================
(PID.TID 0000.0001) %MON obc_N_vVel_max               =   1.4173549268056E-05
(PID.TID 0000.0001) %MON obc_N_vVel_min               =   1.4173549268056E-05
(PID.TID 0000.0001) %MON obc_N_vVel_mean              =   1.4173549268056E-05
(PID.TID 0000.0001) %MON obc_N_vVel_sd                =  -2.3264454728054E-25
(PID.TID 0000.0001) %MON obc_N_vVel_Int               =   9.3545425169170E+02
(PID.TID 0000.0001) // =======================================================
(PID.TID 0000.0001) // End OBCS MONITOR field statistics
(PID.TID 0000.0001) // =======================================================
 cg2d: Sum(rhs),rhsMax =   4.51435151020575E+00  2.99926671176154E+02
(PID.TID 0000.0001)      cg2d_init_res =   6.16838828661521E-06
(PID.TID 0000.0001)      cg2d_iters(min,last) =      -1      81
(PID.TID 0000.0001)      cg2d_last_res =   9.58195719659340E-12
(PID.TID 0000.0001) // =======================================================
(PID.TID 0000.0001) // Begin MONITOR dynamic field statistics
(PID.TID 0000.0001) // =======================================================
(PID.TID 0000.0001) %MON time_tsnumber                =                   954
(PID.TID 0000.0001) %MON time_secondsf                =   9.5400000000000E+04
(PID.TID 0000.0001) %MON dynstat_eta_max              =   5.7959039070914E+00
(PID.TID 0000.0001) %MON dynstat_eta_min              =  -1.4198201034550E+01
(PID.TID 0000.0001) %MON dynstat_eta_mean             =  -2.5073600388427E+00
(PID.TID 0000.0001) %MON dynstat_eta_sd               =   4.9510728319610E+00
(PID.TID 0000.0001) %MON dynstat_eta_del2             =   2.0714806496229E-01
(PID.TID 0000.0001) %MON dynstat_uvel_max             =   4.0477496015292E-03
(PID.TID 0000.0001) %MON dynstat_uvel_min             =  -1.7999782797226E-02
(PID.TID 0000.0001) %MON dynstat_uvel_mean            =  -1.1803466223317E-07
(PID.TID 0000.0001) %MON dynstat_uvel_sd              =   5.3344327605228E-04
(PID.TID 0000.0001) %MON dynstat_uvel_del2            =   8.0532371135205E-07
(PID.TID 0000.0001) %MON dynstat_vvel_max             =   1.4402152831250E-02
(PID.TID 0000.0001) %MON dynstat_vvel_min             =  -6.2713144345237E-03
(PID.TID 0000.0001) %MON dynstat_vvel_mean            =   1.4410168599589E-05
(PID.TID 0000.0001) %MON dynstat_vvel_sd              =   3.4175094457430E-04
(PID.TID 0000.0001) %MON dynstat_vvel_del2            =   6.8779900298203E-07
(PID.TID 0000.0001) %MON dynstat_wvel_max             =   7.0018489713010E-04
(PID.TID 0000.0001) %MON dynstat_wvel_min             =  -6.8699622236363E-04
(PID.TID 0000.0001) %MON dynstat_wvel_mean            =   6.3986168438107E-09
(PID.TID 0000.0001) %MON dynstat_wvel_sd              =   1.6074731356637E-05
(PID.TID 0000.0001) %MON dynstat_wvel_del2            =   6.7011445292473E-08
(PID.TID 0000.0001) %MON dynstat_theta_max            =   1.2000000000000E+00
(PID.TID 0000.0001) %MON dynstat_theta_min            =  -1.0000000000000E+00
(PID.TID 0000.0001) %MON dynstat_theta_mean           =   5.6881345318672E-01
(PID.TID 0000.0001) %MON dynstat_theta_sd             =   8.6842732129235E-01
(PID.TID 0000.0001) %MON dynstat_theta_del2           =   2.1793529778986E-06
(PID.TID 0000.0001) %MON dynstat_salt_max             =   3.4700000000000E+01
(PID.TID 0000.0001) %MON dynstat_salt_min             =   3.4000000000000E+01
(PID.TID 0000.0001) %MON dynstat_salt_mean            =   3.4499139558450E+01
(PID.TID 0000.0001) %MON dynstat_salt_sd              =   2.7630767307440E-01
(PID.TID 0000.0001) %MON dynstat_salt_del2            =   8.5691390078368E-07
(PID.TID 0000.0001) %MON advcfl_uvel_max              =   1.7999782797226E-03
(PID.TID 0000.0001) %MON advcfl_vvel_max              =   1.4402152831250E-03
(PID.TID 0000.0001) %MON advcfl_wvel_max              =   3.5009244856505E-03
(PID.TID 0000.0001) %MON advcfl_W_hf_max              =   3.5009244856505E-03
(PID.TID 0000.0001) %MON pe_b_mean                    =  -8.3086476428450E-01
(PID.TID 0000.0001) %MON ke_max                       =   1.0681226646093E-04
(PID.TID 0000.0001) %MON ke_mean                      =   1.9795682848881E-07
(PID.TID 0000.0001) %MON ke_vol                       =   4.2724863408832E+12
(PID.TID 0000.0001) // =======================================================
(PID.TID 0000.0001) // End MONITOR dynamic field statistics
(PID.TID 0000.0001) // =======================================================
(PID.TID 0000.0001) // =======================================================
(PID.TID 0000.0001) // Begin OBCS MONITOR field statistics
(PID.TID 0000.0001) // =======================================================
(PID.TID 0000.0001) %MON obc_N_vVel_max               =   1.4190221433453E-05
(PID.TID 0000.0001) %MON obc_N_vVel_min               =   1.4190221433452E-05
(PID.TID 0000.0001) %MON obc_N_vVel_mean              =   1.4190221433452E-05
(PID.TID 0000.0001) %MON obc_N_vVel_sd                =   3.5516903498804E-12
(PID.TID 0000.0001) %MON obc_N_vVel_Int               =   9.3655461460785E+02
(PID.TID 0000.0001) // =======================================================
(PID.TID 0000.0001) // End OBCS MONITOR field statistics
(PID.TID 0000.0001) // =======================================================
 cg2d: Sum(rhs),rhsMax =   4.51436850132306E+00  2.99926741992548E+02
(PID.TID 0000.0001)      cg2d_init_res =   6.19845900125158E-06
(PID.TID 0000.0001)      cg2d_iters(min,last) =      -1      81
(PID.TID 0000.0001)      cg2d_last_res =   9.60552850967532E-12
(PID.TID 0000.0001) // =======================================================
(PID.TID 0000.0001) // Begin MONITOR dynamic field statistics
(PID.TID 0000.0001) // =======================================================
(PID.TID 0000.0001) %MON time_tsnumber                =                   955
(PID.TID 0000.0001) %MON time_secondsf                =   9.5500000000000E+04
(PID.TID 0000.0001) %MON dynstat_eta_max              =   5.7959013219641E+00
(PID.TID 0000.0001) %MON dynstat_eta_min              =  -1.4198221793358E+01
(PID.TID 0000.0001) %MON dynstat_eta_mean             =  -2.5073700680659E+00
(PID.TID 0000.0001) %MON dynstat_eta_sd               =   4.9510763884242E+00
(PID.TID 0000.0001) %MON dynstat_eta_del2             =   2.0714808920745E-01
(PID.TID 0000.0001) %MON dynstat_uvel_max             =   4.0583585955680E-03
(PID.TID 0000.0001) %MON dynstat_uvel_min             =  -1.8045075324711E-02
(PID.TID 0000.0001) %MON dynstat_uvel_mean            =  -1.1817838646455E-07
(PID.TID 0000.0001) %MON dynstat_uvel_sd              =   5.3482271568912E-04
(PID.TID 0000.0001) %MON dynstat_uvel_del2            =   8.0711185472494E-07
(PID.TID 0000.0001) %MON dynstat_vvel_max             =   1.4436940108868E-02
(PID.TID 0000.0001) %MON dynstat_vvel_min             =  -6.2828162483353E-03
(PID.TID 0000.0001) %MON dynstat_vvel_mean            =   1.4433765641817E-05
(PID.TID 0000.0001) %MON dynstat_vvel_sd              =   3.4241169419734E-04
(PID.TID 0000.0001) %MON dynstat_vvel_del2            =   6.8953852441419E-07
(PID.TID 0000.0001) %MON dynstat_wvel_max             =   7.0217990872818E-04
(PID.TID 0000.0001) %MON dynstat_wvel_min             =  -6.8886551692509E-04
(PID.TID 0000.0001) %MON dynstat_wvel_mean            =   6.4481018011981E-09
(PID.TID 0000.0001) %MON dynstat_wvel_sd              =   1.5939048339398E-05
(PID.TID 0000.0001) %MON dynstat_wvel_del2            =   6.7001406478841E-08
(PID.TID 0000.0001) %MON dynstat_theta_max            =   1.2000000000000E+00
(PID.TID 0000.0001) %MON dynstat_theta_min            =  -1.0000000000000E+00
(PID.TID 0000.0001) %MON dynstat_theta_mean           =   5.6881276594723E-01
(PID.TID 0000.0001) %MON dynstat_theta_sd             =   8.6842694829778E-01
(PID.TID 0000.0001) %MON dynstat_theta_del2           =   2.1841029988152E-06
(PID.TID 0000.0001) %MON dynstat_salt_max             =   3.4700000000000E+01
(PID.TID 0000.0001) %MON dynstat_salt_min             =   3.4000000000000E+01
(PID.TID 0000.0001) %MON dynstat_salt_mean            =   3.4499139283575E+01
(PID.TID 0000.0001) %MON dynstat_salt_sd              =   2.7630752995861E-01
(PID.TID 0000.0001) %MON dynstat_salt_del2            =   8.5879238205788E-07
(PID.TID 0000.0001) %MON advcfl_uvel_max              =   1.8045075324711E-03
(PID.TID 0000.0001) %MON advcfl_vvel_max              =   1.4436940108868E-03
(PID.TID 0000.0001) %MON advcfl_wvel_max              =   3.5108995436409E-03
(PID.TID 0000.0001) %MON advcfl_W_hf_max              =   3.5108995436409E-03
(PID.TID 0000.0001) %MON pe_b_mean                    =  -8.3086747142961E-01
(PID.TID 0000.0001) %MON ke_max                       =   1.0746539518139E-04
(PID.TID 0000.0001) %MON ke_mean                      =   1.9890538388840E-07
(PID.TID 0000.0001) %MON ke_vol                       =   4.2724862813693E+12
(PID.TID 0000.0001) // =======================================================
(PID.TID 0000.0001) // End MONITOR dynamic field statistics
(PID.TID 0000.0001) // =======================================================
(PID.TID 0000.0001) // =======================================================
(PID.TID 0000.0001) // Begin OBCS MONITOR field statistics
(PID.TID 0000.0001) // =======================================================
(PID.TID 0000.0001) %MON obc_N_vVel_max               =   1.4210004904168E-05
(PID.TID 0000.0001) %MON obc_N_vVel_min               =   1.4210004904168E-05
(PID.TID 0000.0001) %MON obc_N_vVel_mean              =   1.4210004904168E-05
(PID.TID 0000.0001) %MON obc_N_vVel_sd                =  -1.1735624940596E-23
(PID.TID 0000.0001) %MON obc_N_vVel_Int               =   9.3786032367510E+02
(PID.TID 0000.0001) // =======================================================
(PID.TID 0000.0001) // End OBCS MONITOR field statistics
(PID.TID 0000.0001) // =======================================================
 cg2d: Sum(rhs),rhsMax =   4.51438549850993E+00  2.99926814008071E+02
(PID.TID 0000.0001)      cg2d_init_res =   6.22992230963380E-06
(PID.TID 0000.0001)      cg2d_iters(min,last) =      -1      81
(PID.TID 0000.0001)      cg2d_last_res =   9.62868741804789E-12
(PID.TID 0000.0001) // =======================================================
(PID.TID 0000.0001) // Begin MONITOR dynamic field statistics
(PID.TID 0000.0001) // =======================================================
(PID.TID 0000.0001) %MON time_tsnumber                =                   956
(PID.TID 0000.0001) %MON time_secondsf                =   9.5600000000000E+04
(PID.TID 0000.0001) %MON dynstat_eta_max              =   5.7958987298123E+00
(PID.TID 0000.0001) %MON dynstat_eta_min              =  -1.4198242587421E+01
(PID.TID 0000.0001) %MON dynstat_eta_mean             =  -2.5073801106895E+00
(PID.TID 0000.0001) %MON dynstat_eta_sd               =   4.9510799527699E+00
(PID.TID 0000.0001) %MON dynstat_eta_del2             =   2.0714811351931E-01
(PID.TID 0000.0001) %MON dynstat_uvel_max             =   4.0689895400980E-03
(PID.TID 0000.0001) %MON dynstat_uvel_min             =  -1.8090436314250E-02
(PID.TID 0000.0001) %MON dynstat_uvel_mean            =  -1.1831506036222E-07
(PID.TID 0000.0001) %MON dynstat_uvel_sd              =   5.3620541525880E-04
(PID.TID 0000.0001) %MON dynstat_uvel_del2            =   8.0890502235399E-07
(PID.TID 0000.0001) %MON dynstat_vvel_max             =   1.4471780569640E-02
(PID.TID 0000.0001) %MON dynstat_vvel_min             =  -6.2943307391370E-03
(PID.TID 0000.0001) %MON dynstat_vvel_mean            =   1.4460632644721E-05
(PID.TID 0000.0001) %MON dynstat_vvel_sd              =   3.4308093328545E-04
(PID.TID 0000.0001) %MON dynstat_vvel_del2            =   6.9129613738451E-07
(PID.TID 0000.0001) %MON dynstat_wvel_max             =   7.0417901665050E-04
(PID.TID 0000.0001) %MON dynstat_wvel_min             =  -6.9073884261466E-04
(PID.TID 0000.0001) %MON dynstat_wvel_mean            =   6.5001771148400E-09
(PID.TID 0000.0001) %MON dynstat_wvel_sd              =   1.5816287518430E-05
(PID.TID 0000.0001) %MON dynstat_wvel_del2            =   6.7002524025395E-08
(PID.TID 0000.0001) %MON dynstat_theta_max            =   1.2000000000000E+00
(PID.TID 0000.0001) %MON dynstat_theta_min            =  -1.0000000000000E+00
(PID.TID 0000.0001) %MON dynstat_theta_mean           =   5.6881207725525E-01
(PID.TID 0000.0001) %MON dynstat_theta_sd             =   8.6842657460020E-01
(PID.TID 0000.0001) %MON dynstat_theta_del2           =   2.1888162585246E-06
(PID.TID 0000.0001) %MON dynstat_salt_max             =   3.4700000000000E+01
(PID.TID 0000.0001) %MON dynstat_salt_min             =   3.4000000000000E+01
(PID.TID 0000.0001) %MON dynstat_salt_mean            =   3.4499139008120E+01
(PID.TID 0000.0001) %MON dynstat_salt_sd              =   2.7630738656475E-01
(PID.TID 0000.0001) %MON dynstat_salt_del2            =   8.6066188996154E-07
(PID.TID 0000.0001) %MON advcfl_uvel_max              =   1.8090436314250E-03
(PID.TID 0000.0001) %MON advcfl_vvel_max              =   1.4471780569640E-03
(PID.TID 0000.0001) %MON advcfl_wvel_max              =   3.5208950832525E-03
(PID.TID 0000.0001) %MON advcfl_W_hf_max              =   3.5208950832525E-03
(PID.TID 0000.0001) %MON pe_b_mean                    =  -8.3087018161461E-01
(PID.TID 0000.0001) %MON ke_max                       =   1.0812205190216E-04
(PID.TID 0000.0001) %MON ke_mean                      =   1.9986091412909E-07
(PID.TID 0000.0001) %MON ke_vol                       =   4.2724862217957E+12
(PID.TID 0000.0001) // =======================================================
(PID.TID 0000.0001) // End MONITOR dynamic field statistics
(PID.TID 0000.0001) // =======================================================
(PID.TID 0000.0001) // =======================================================
(PID.TID 0000.0001) // Begin OBCS MONITOR field statistics
(PID.TID 0000.0001) // =======================================================
(PID.TID 0000.0001) %MON obc_N_vVel_max               =   1.4232829712471E-05
(PID.TID 0000.0001) %MON obc_N_vVel_min               =   1.4232829712471E-05
(PID.TID 0000.0001) %MON obc_N_vVel_mean              =   1.4232829712471E-05
(PID.TID 0000.0001) %MON obc_N_vVel_sd                =  -1.3777727077836E-23
(PID.TID 0000.0001) %MON obc_N_vVel_Int               =   9.3936676102310E+02
(PID.TID 0000.0001) // =======================================================
(PID.TID 0000.0001) // End OBCS MONITOR field statistics
(PID.TID 0000.0001) // =======================================================
 cg2d: Sum(rhs),rhsMax =   4.51440250712986E+00  2.99926887255999E+02
(PID.TID 0000.0001)      cg2d_init_res =   6.26285343691579E-06
(PID.TID 0000.0001)      cg2d_iters(min,last) =      -1      81
(PID.TID 0000.0001)      cg2d_last_res =   9.65113018162008E-12
(PID.TID 0000.0001) // =======================================================
(PID.TID 0000.0001) // Begin MONITOR dynamic field statistics
(PID.TID 0000.0001) // =======================================================
(PID.TID 0000.0001) %MON time_tsnumber                =                   957
(PID.TID 0000.0001) %MON time_secondsf                =   9.5700000000000E+04
(PID.TID 0000.0001) %MON dynstat_eta_max              =   5.7958961252466E+00
(PID.TID 0000.0001) %MON dynstat_eta_min              =  -1.4198263422360E+01
(PID.TID 0000.0001) %MON dynstat_eta_mean             =  -2.5073901699706E+00
(PID.TID 0000.0001) %MON dynstat_eta_sd               =   4.9510835259667E+00
(PID.TID 0000.0001) %MON dynstat_eta_del2             =   2.0714813789847E-01
(PID.TID 0000.0001) %MON dynstat_uvel_max             =   4.0796424786826E-03
(PID.TID 0000.0001) %MON dynstat_uvel_min             =  -1.8135865659964E-02
(PID.TID 0000.0001) %MON dynstat_uvel_mean            =  -1.1844360078887E-07
(PID.TID 0000.0001) %MON dynstat_uvel_sd              =   5.3759137552831E-04
(PID.TID 0000.0001) %MON dynstat_uvel_del2            =   8.1070325024021E-07
(PID.TID 0000.0001) %MON dynstat_vvel_max             =   1.4506674156717E-02
(PID.TID 0000.0001) %MON dynstat_vvel_min             =  -6.3058579284059E-03
(PID.TID 0000.0001) %MON dynstat_vvel_mean            =   1.4490656747570E-05
(PID.TID 0000.0001) %MON dynstat_vvel_sd              =   3.4376040496355E-04
(PID.TID 0000.0001) %MON dynstat_vvel_del2            =   6.9307402501488E-07
(PID.TID 0000.0001) %MON dynstat_wvel_max             =   7.0618222221151E-04
(PID.TID 0000.0001) %MON dynstat_wvel_min             =  -6.9261619873609E-04
(PID.TID 0000.0001) %MON dynstat_wvel_mean            =   6.5545558725765E-09
(PID.TID 0000.0001) %MON dynstat_wvel_sd              =   1.5712292516009E-05
(PID.TID 0000.0001) %MON dynstat_wvel_del2            =   6.7042390760751E-08
(PID.TID 0000.0001) %MON dynstat_theta_max            =   1.2000000000000E+00
(PID.TID 0000.0001) %MON dynstat_theta_min            =  -1.0000000000000E+00
(PID.TID 0000.0001) %MON dynstat_theta_mean           =   5.6881138711079E-01
(PID.TID 0000.0001) %MON dynstat_theta_sd             =   8.6842620020121E-01
(PID.TID 0000.0001) %MON dynstat_theta_del2           =   2.1934844696955E-06
(PID.TID 0000.0001) %MON dynstat_salt_max             =   3.4700000000000E+01
(PID.TID 0000.0001) %MON dynstat_salt_min             =   3.4000000000000E+01
(PID.TID 0000.0001) %MON dynstat_salt_mean            =   3.4499138732084E+01
(PID.TID 0000.0001) %MON dynstat_salt_sd              =   2.7630724289307E-01
(PID.TID 0000.0001) %MON dynstat_salt_del2            =   8.6252021870599E-07
(PID.TID 0000.0001) %MON advcfl_uvel_max              =   1.8135865659964E-03
(PID.TID 0000.0001) %MON advcfl_vvel_max              =   1.4506674156717E-03
(PID.TID 0000.0001) %MON advcfl_wvel_max              =   3.5309111110576E-03
(PID.TID 0000.0001) %MON advcfl_W_hf_max              =   3.5309111110576E-03
(PID.TID 0000.0001) %MON pe_b_mean                    =  -8.3087289563287E-01
(PID.TID 0000.0001) %MON ke_max                       =   1.0878225165824E-04
(PID.TID 0000.0001) %MON ke_mean                      =   2.0082404771253E-07
(PID.TID 0000.0001) %MON ke_vol                       =   4.2724861621425E+12
(PID.TID 0000.0001) // =======================================================
(PID.TID 0000.0001) // End MONITOR dynamic field statistics
(PID.TID 0000.0001) // =======================================================
(PID.TID 0000.0001) // =======================================================
(PID.TID 0000.0001) // Begin OBCS MONITOR field statistics
(PID.TID 0000.0001) // =======================================================
(PID.TID 0000.0001) %MON obc_N_vVel_max               =   1.4258604650425E-05
(PID.TID 0000.0001) %MON obc_N_vVel_min               =   1.4258604650425E-05
(PID.TID 0000.0001) %MON obc_N_vVel_mean              =   1.4258604650425E-05
(PID.TID 0000.0001) %MON obc_N_vVel_sd                =   3.2155493553844E-13
(PID.TID 0000.0001) %MON obc_N_vVel_Int               =   9.4106790692805E+02
(PID.TID 0000.0001) // =======================================================
(PID.TID 0000.0001) // End OBCS MONITOR field statistics
(PID.TID 0000.0001) // =======================================================
 cg2d: Sum(rhs),rhsMax =   4.51441953241909E+00  2.99926961763314E+02
(PID.TID 0000.0001)      cg2d_init_res =   6.29739977776199E-06
(PID.TID 0000.0001)      cg2d_iters(min,last) =      -1      81
(PID.TID 0000.0001)      cg2d_last_res =   9.67259903919386E-12
(PID.TID 0000.0001) // =======================================================
(PID.TID 0000.0001) // Begin MONITOR dynamic field statistics
(PID.TID 0000.0001) // =======================================================
(PID.TID 0000.0001) %MON time_tsnumber                =                   958
(PID.TID 0000.0001) %MON time_secondsf                =   9.5800000000000E+04
(PID.TID 0000.0001) %MON dynstat_eta_max              =   5.7958935031224E+00
(PID.TID 0000.0001) %MON dynstat_eta_min              =  -1.4198284303562E+01
(PID.TID 0000.0001) %MON dynstat_eta_mean             =  -2.5074002490434E+00
(PID.TID 0000.0001) %MON dynstat_eta_sd               =   4.9510871089256E+00
(PID.TID 0000.0001) %MON dynstat_eta_del2             =   2.0714816234567E-01
(PID.TID 0000.0001) %MON dynstat_uvel_max             =   4.0903174562708E-03
(PID.TID 0000.0001) %MON dynstat_uvel_min             =  -1.8181363254783E-02
(PID.TID 0000.0001) %MON dynstat_uvel_mean            =  -1.1856295233824E-07
(PID.TID 0000.0001) %MON dynstat_uvel_sd              =   5.3898059885462E-04
(PID.TID 0000.0001) %MON dynstat_uvel_del2            =   8.1250657922792E-07
(PID.TID 0000.0001) %MON dynstat_vvel_max             =   1.4541620809261E-02
(PID.TID 0000.0001) %MON dynstat_vvel_min             =  -6.3173978397764E-03
(PID.TID 0000.0001) %MON dynstat_vvel_mean            =   1.4523701930486E-05
(PID.TID 0000.0001) %MON dynstat_vvel_sd              =   3.4445159988535E-04
(PID.TID 0000.0001) %MON dynstat_vvel_del2            =   6.9487378243231E-07
(PID.TID 0000.0001) %MON dynstat_wvel_max             =   7.0818952669983E-04
(PID.TID 0000.0001) %MON dynstat_wvel_min             =  -6.9449758430168E-04
(PID.TID 0000.0001) %MON dynstat_wvel_mean            =   6.6109273225200E-09
(PID.TID 0000.0001) %MON dynstat_wvel_sd              =   1.5632611700453E-05
(PID.TID 0000.0001) %MON dynstat_wvel_del2            =   6.7148211830525E-08
(PID.TID 0000.0001) %MON dynstat_theta_max            =   1.2000000000000E+00
(PID.TID 0000.0001) %MON dynstat_theta_min            =  -1.0000000000000E+00
(PID.TID 0000.0001) %MON dynstat_theta_mean           =   5.6881069551474E-01
(PID.TID 0000.0001) %MON dynstat_theta_sd             =   8.6842582509753E-01
(PID.TID 0000.0001) %MON dynstat_theta_del2           =   2.1981008343421E-06
(PID.TID 0000.0001) %MON dynstat_salt_max             =   3.4700000000000E+01
(PID.TID 0000.0001) %MON dynstat_salt_min             =   3.4000000000000E+01
(PID.TID 0000.0001) %MON dynstat_salt_mean            =   3.4499138455469E+01
(PID.TID 0000.0001) %MON dynstat_salt_sd              =   2.7630709894248E-01
(PID.TID 0000.0001) %MON dynstat_salt_del2            =   8.6436552188957E-07
(PID.TID 0000.0001) %MON advcfl_uvel_max              =   1.8181363254783E-03
(PID.TID 0000.0001) %MON advcfl_vvel_max              =   1.4541620809261E-03
(PID.TID 0000.0001) %MON advcfl_wvel_max              =   3.5409476334992E-03
(PID.TID 0000.0001) %MON advcfl_W_hf_max              =   3.5409476334992E-03
(PID.TID 0000.0001) %MON pe_b_mean                    =  -8.3087561424142E-01
(PID.TID 0000.0001) %MON ke_max                       =   1.0944600952291E-04
(PID.TID 0000.0001) %MON ke_mean                      =   2.0179533176068E-07
(PID.TID 0000.0001) %MON ke_vol                       =   4.2724861023904E+12
(PID.TID 0000.0001) // =======================================================
(PID.TID 0000.0001) // End MONITOR dynamic field statistics
(PID.TID 0000.0001) // =======================================================
(PID.TID 0000.0001) // =======================================================
(PID.TID 0000.0001) // Begin OBCS MONITOR field statistics
(PID.TID 0000.0001) // =======================================================
(PID.TID 0000.0001) %MON obc_N_vVel_max               =   1.4287217369082E-05
(PID.TID 0000.0001) %MON obc_N_vVel_min               =   1.4287217369081E-05
(PID.TID 0000.0001) %MON obc_N_vVel_mean              =   1.4287217369082E-05
(PID.TID 0000.0001) %MON obc_N_vVel_sd                =  -1.6983051951479E-23
(PID.TID 0000.0001) %MON obc_N_vVel_Int               =   9.4295634635939E+02
(PID.TID 0000.0001) // =======================================================
(PID.TID 0000.0001) // End OBCS MONITOR field statistics
(PID.TID 0000.0001) // =======================================================
 cg2d: Sum(rhs),rhsMax =   4.51443657948886E+00  2.99927037547321E+02
(PID.TID 0000.0001)      cg2d_init_res =   6.33360753691743E-06
(PID.TID 0000.0001)      cg2d_iters(min,last) =      -1      81
(PID.TID 0000.0001)      cg2d_last_res =   9.69289236424527E-12
(PID.TID 0000.0001) // =======================================================
(PID.TID 0000.0001) // Begin MONITOR dynamic field statistics
(PID.TID 0000.0001) // =======================================================
(PID.TID 0000.0001) %MON time_tsnumber                =                   959
(PID.TID 0000.0001) %MON time_secondsf                =   9.5900000000000E+04
(PID.TID 0000.0001) %MON dynstat_eta_max              =   5.7958908585871E+00
(PID.TID 0000.0001) %MON dynstat_eta_min              =  -1.4198305236142E+01
(PID.TID 0000.0001) %MON dynstat_eta_mean             =  -2.5074103508914E+00
(PID.TID 0000.0001) %MON dynstat_eta_sd               =   4.9510907024890E+00
(PID.TID 0000.0001) %MON dynstat_eta_del2             =   2.0714818686158E-01
(PID.TID 0000.0001) %MON dynstat_uvel_max             =   4.1010145189944E-03
(PID.TID 0000.0001) %MON dynstat_uvel_min             =  -1.8226928990440E-02
(PID.TID 0000.0001) %MON dynstat_uvel_mean            =  -1.1867210251352E-07
(PID.TID 0000.0001) %MON dynstat_uvel_sd              =   5.4037308932367E-04
(PID.TID 0000.0001) %MON dynstat_uvel_del2            =   8.1431505486258E-07
(PID.TID 0000.0001) %MON dynstat_vvel_max             =   1.4576620462587E-02
(PID.TID 0000.0001) %MON dynstat_vvel_min             =  -6.3289504988093E-03
(PID.TID 0000.0001) %MON dynstat_vvel_mean            =   1.4559609317339E-05
(PID.TID 0000.0001) %MON dynstat_vvel_sd              =   3.4515569178695E-04
(PID.TID 0000.0001) %MON dynstat_vvel_del2            =   6.9669576204894E-07
(PID.TID 0000.0001) %MON dynstat_wvel_max             =   7.1020093136434E-04
(PID.TID 0000.0001) %MON dynstat_wvel_min             =  -6.9638299803978E-04
(PID.TID 0000.0001) %MON dynstat_wvel_mean            =   6.6689624551161E-09
(PID.TID 0000.0001) %MON dynstat_wvel_sd              =   1.5582070572561E-05
(PID.TID 0000.0001) %MON dynstat_wvel_del2            =   6.7343718948628E-08
(PID.TID 0000.0001) %MON dynstat_theta_max            =   1.2000000000000E+00
(PID.TID 0000.0001) %MON dynstat_theta_min            =  -1.0000000000000E+00
(PID.TID 0000.0001) %MON dynstat_theta_mean           =   5.6881000246835E-01
(PID.TID 0000.0001) %MON dynstat_theta_sd             =   8.6842544928284E-01
(PID.TID 0000.0001) %MON dynstat_theta_del2           =   2.2026607671109E-06
(PID.TID 0000.0001) %MON dynstat_salt_max             =   3.4700000000000E+01
(PID.TID 0000.0001) %MON dynstat_salt_min             =   3.4000000000000E+01
(PID.TID 0000.0001) %MON dynstat_salt_mean            =   3.4499138178274E+01
(PID.TID 0000.0001) %MON dynstat_salt_sd              =   2.7630695471090E-01
(PID.TID 0000.0001) %MON dynstat_salt_del2            =   8.6619656945272E-07
(PID.TID 0000.0001) %MON advcfl_uvel_max              =   1.8226928990440E-03
(PID.TID 0000.0001) %MON advcfl_vvel_max              =   1.4576620462587E-03
(PID.TID 0000.0001) %MON advcfl_wvel_max              =   3.5510046568217E-03
(PID.TID 0000.0001) %MON advcfl_W_hf_max              =   3.5510046568217E-03
(PID.TID 0000.0001) %MON pe_b_mean                    =  -8.3087833815414E-01
(PID.TID 0000.0001) %MON ke_max                       =   1.1011334060965E-04
(PID.TID 0000.0001) %MON ke_mean                      =   2.0277520915921E-07
(PID.TID 0000.0001) %MON ke_vol                       =   4.2724860425207E+12
(PID.TID 0000.0001) // =======================================================
(PID.TID 0000.0001) // End MONITOR dynamic field statistics
(PID.TID 0000.0001) // =======================================================
(PID.TID 0000.0001) // =======================================================
(PID.TID 0000.0001) // Begin OBCS MONITOR field statistics
(PID.TID 0000.0001) // =======================================================
(PID.TID 0000.0001) %MON obc_N_vVel_max               =   1.4318534401204E-05
(PID.TID 0000.0001) %MON obc_N_vVel_min               =   1.4318534401204E-05
(PID.TID 0000.0001) %MON obc_N_vVel_mean              =   1.4318534401204E-05
(PID.TID 0000.0001) %MON obc_N_vVel_sd                =   3.4181758515781E-12
(PID.TID 0000.0001) %MON obc_N_vVel_Int               =   9.4502327047946E+02
(PID.TID 0000.0001) // =======================================================
(PID.TID 0000.0001) // End OBCS MONITOR field statistics
(PID.TID 0000.0001) // =======================================================
 cg2d: Sum(rhs),rhsMax =   4.51445365325057E+00  2.99927114618417E+02
(PID.TID 0000.0001)      cg2d_init_res =   6.37155446950424E-06
(PID.TID 0000.0001)      cg2d_iters(min,last) =      -1      81
(PID.TID 0000.0001)      cg2d_last_res =   9.71180747676255E-12
(PID.TID 0000.0001) // =======================================================
(PID.TID 0000.0001) // Begin MONITOR dynamic field statistics
(PID.TID 0000.0001) // =======================================================
(PID.TID 0000.0001) %MON time_tsnumber                =                   960
(PID.TID 0000.0001) %MON time_secondsf                =   9.6000000000000E+04
(PID.TID 0000.0001) %MON dynstat_eta_max              =   5.7958881871100E+00
(PID.TID 0000.0001) %MON dynstat_eta_min              =  -1.4198326224884E+01
(PID.TID 0000.0001) %MON dynstat_eta_mean             =  -2.5074204783297E+00
(PID.TID 0000.0001) %MON dynstat_eta_sd               =   4.9510943074243E+00
(PID.TID 0000.0001) %MON dynstat_eta_del2             =   2.0714821144678E-01
(PID.TID 0000.0001) %MON dynstat_uvel_max             =   4.1117337142076E-03
(PID.TID 0000.0001) %MON dynstat_uvel_min             =  -1.8272562757666E-02
(PID.TID 0000.0001) %MON dynstat_uvel_mean            =  -1.1877010733167E-07
(PID.TID 0000.0001) %MON dynstat_uvel_sd              =   5.4176885284400E-04
(PID.TID 0000.0001) %MON dynstat_uvel_del2            =   8.1612872784796E-07
(PID.TID 0000.0001) %MON dynstat_vvel_max             =   1.4611673048161E-02
(PID.TID 0000.0001) %MON dynstat_vvel_min             =  -6.3405159331715E-03
(PID.TID 0000.0001) %MON dynstat_vvel_mean            =   1.4598197693261E-05
(PID.TID 0000.0001) %MON dynstat_vvel_sd              =   3.4587348319279E-04
(PID.TID 0000.0001) %MON dynstat_vvel_del2            =   6.9853851491209E-07
(PID.TID 0000.0001) %MON dynstat_wvel_max             =   7.1221643741483E-04
(PID.TID 0000.0001) %MON dynstat_wvel_min             =  -6.9827243842147E-04
(PID.TID 0000.0001) %MON dynstat_wvel_mean            =   6.7283108611665E-09
(PID.TID 0000.0001) %MON dynstat_wvel_sd              =   1.5564363945698E-05
(PID.TID 0000.0001) %MON dynstat_wvel_del2            =   6.7646334483190E-08
(PID.TID 0000.0001) %MON dynstat_theta_max            =   1.2000000000000E+00
(PID.TID 0000.0001) %MON dynstat_theta_min            =  -1.0000000000000E+00
(PID.TID 0000.0001) %MON dynstat_theta_mean           =   5.6880930797369E-01
(PID.TID 0000.0001) %MON dynstat_theta_sd             =   8.6842507275022E-01
(PID.TID 0000.0001) %MON dynstat_theta_del2           =   2.2071624220170E-06
(PID.TID 0000.0001) %MON dynstat_salt_max             =   3.4700000000000E+01
(PID.TID 0000.0001) %MON dynstat_salt_min             =   3.4000000000000E+01
(PID.TID 0000.0001) %MON dynstat_salt_mean            =   3.4499137900500E+01
(PID.TID 0000.0001) %MON dynstat_salt_sd              =   2.7630681019591E-01
(PID.TID 0000.0001) %MON dynstat_salt_del2            =   8.6801283318004E-07
(PID.TID 0000.0001) %MON advcfl_uvel_max              =   1.8272562757666E-03
(PID.TID 0000.0001) %MON advcfl_vvel_max              =   1.4611673048161E-03
(PID.TID 0000.0001) %MON advcfl_wvel_max              =   3.5610821870742E-03
(PID.TID 0000.0001) %MON advcfl_W_hf_max              =   3.5610821870742E-03
(PID.TID 0000.0001) %MON pe_b_mean                    =  -8.3088106803700E-01
(PID.TID 0000.0001) %MON ke_max                       =   1.1078426007306E-04
(PID.TID 0000.0001) %MON ke_mean                      =   2.0376399888854E-07
(PID.TID 0000.0001) %MON ke_vol                       =   4.2724859825157E+12
(PID.TID 0000.0001) // =======================================================
(PID.TID 0000.0001) // End MONITOR dynamic field statistics
(PID.TID 0000.0001) // =======================================================
(PID.TID 0000.0001) // =======================================================
(PID.TID 0000.0001) // Begin OBCS MONITOR field statistics
(PID.TID 0000.0001) // =======================================================
(PID.TID 0000.0001) %MON obc_N_vVel_max               =   1.4352401848981E-05
(PID.TID 0000.0001) %MON obc_N_vVel_min               =   1.4352401848981E-05
(PID.TID 0000.0001) %MON obc_N_vVel_mean              =   1.4352401848981E-05
(PID.TID 0000.0001) %MON obc_N_vVel_sd                =   5.3323853533396E-13
(PID.TID 0000.0001) %MON obc_N_vVel_Int               =   9.4725852203273E+02
(PID.TID 0000.0001) // =======================================================
(PID.TID 0000.0001) // End OBCS MONITOR field statistics
(PID.TID 0000.0001) // =======================================================
 cg2d: Sum(rhs),rhsMax =   4.51447075838211E+00  2.99927192979391E+02
(PID.TID 0000.0001)      cg2d_init_res =   6.41122050197472E-06
(PID.TID 0000.0001)      cg2d_iters(min,last) =      -1      81
(PID.TID 0000.0001)      cg2d_last_res =   9.72922970725219E-12
(PID.TID 0000.0001) // =======================================================
(PID.TID 0000.0001) // Begin MONITOR dynamic field statistics
(PID.TID 0000.0001) // =======================================================
(PID.TID 0000.0001) %MON time_tsnumber                =                   961
(PID.TID 0000.0001) %MON time_secondsf                =   9.6100000000000E+04
(PID.TID 0000.0001) %MON dynstat_eta_max              =   5.7958854845288E+00
(PID.TID 0000.0001) %MON dynstat_eta_min              =  -1.4198347274226E+01
(PID.TID 0000.0001) %MON dynstat_eta_mean             =  -2.5074306339798E+00
(PID.TID 0000.0001) %MON dynstat_eta_sd               =   4.9510979244187E+00
(PID.TID 0000.0001) %MON dynstat_eta_del2             =   2.0714823610185E-01
(PID.TID 0000.0001) %MON dynstat_uvel_max             =   4.1224750902238E-03
(PID.TID 0000.0001) %MON dynstat_uvel_min             =  -1.8318264446219E-02
(PID.TID 0000.0001) %MON dynstat_uvel_mean            =  -1.1885609857152E-07
(PID.TID 0000.0001) %MON dynstat_uvel_sd              =   5.4316789715841E-04
(PID.TID 0000.0001) %MON dynstat_uvel_del2            =   8.1794765358295E-07
(PID.TID 0000.0001) %MON dynstat_vvel_max             =   1.4646778493618E-02
(PID.TID 0000.0001) %MON dynstat_vvel_min             =  -6.3520941722963E-03
(PID.TID 0000.0001) %MON dynstat_vvel_mean            =   1.4639264215968E-05
(PID.TID 0000.0001) %MON dynstat_vvel_sd              =   3.4660536530907E-04
(PID.TID 0000.0001) %MON dynstat_vvel_del2            =   7.0039839162979E-07
(PID.TID 0000.0001) %MON dynstat_wvel_max             =   7.1423604601139E-04
(PID.TID 0000.0001) %MON dynstat_wvel_min             =  -7.0016590366606E-04
(PID.TID 0000.0001) %MON dynstat_wvel_mean            =   6.7886073510127E-09
(PID.TID 0000.0001) %MON dynstat_wvel_sd              =   1.5581718599289E-05
(PID.TID 0000.0001) %MON dynstat_wvel_del2            =   6.8064960636415E-08
(PID.TID 0000.0001) %MON dynstat_theta_max            =   1.2000000000000E+00
(PID.TID 0000.0001) %MON dynstat_theta_min            =  -1.0000000000000E+00
(PID.TID 0000.0001) %MON dynstat_theta_mean           =   5.6880861203328E-01
(PID.TID 0000.0001) %MON dynstat_theta_sd             =   8.6842469548294E-01
(PID.TID 0000.0001) %MON dynstat_theta_del2           =   2.2116071578828E-06
(PID.TID 0000.0001) %MON dynstat_salt_max             =   3.4700000000000E+01
(PID.TID 0000.0001) %MON dynstat_salt_min             =   3.4000000000000E+01
(PID.TID 0000.0001) %MON dynstat_salt_mean            =   3.4499137622147E+01
(PID.TID 0000.0001) %MON dynstat_salt_sd              =   2.7630666539227E-01
(PID.TID 0000.0001) %MON dynstat_salt_del2            =   8.6981461608678E-07
(PID.TID 0000.0001) %MON advcfl_uvel_max              =   1.8318264446219E-03
(PID.TID 0000.0001) %MON advcfl_vvel_max              =   1.4646778493618E-03
(PID.TID 0000.0001) %MON advcfl_wvel_max              =   3.5711802300570E-03
(PID.TID 0000.0001) %MON advcfl_W_hf_max              =   3.5711802300570E-03
(PID.TID 0000.0001) %MON pe_b_mean                    =  -8.3088380450223E-01
(PID.TID 0000.0001) %MON ke_max                       =   1.1145878310816E-04
(PID.TID 0000.0001) %MON ke_mean                      =   2.0476188094308E-07
(PID.TID 0000.0001) %MON ke_vol                       =   4.2724859223587E+12
(PID.TID 0000.0001) // =======================================================
(PID.TID 0000.0001) // End MONITOR dynamic field statistics
(PID.TID 0000.0001) // =======================================================
(PID.TID 0000.0001) // =======================================================
(PID.TID 0000.0001) // Begin OBCS MONITOR field statistics
(PID.TID 0000.0001) // =======================================================
(PID.TID 0000.0001) %MON obc_N_vVel_max               =   1.4388645628486E-05
(PID.TID 0000.0001) %MON obc_N_vVel_min               =   1.4388645628485E-05
(PID.TID 0000.0001) %MON obc_N_vVel_mean              =   1.4388645628486E-05
(PID.TID 0000.0001) %MON obc_N_vVel_sd                =  -8.9697397673719E-24
(PID.TID 0000.0001) %MON obc_N_vVel_Int               =   9.4965061148007E+02
(PID.TID 0000.0001) // =======================================================
(PID.TID 0000.0001) // End OBCS MONITOR field statistics
(PID.TID 0000.0001) // =======================================================
 cg2d: Sum(rhs),rhsMax =   4.51448789934191E+00  2.99927272622092E+02
(PID.TID 0000.0001)      cg2d_init_res =   6.45249774508496E-06
(PID.TID 0000.0001)      cg2d_iters(min,last) =      -1      81
(PID.TID 0000.0001)      cg2d_last_res =   9.74508198456589E-12
(PID.TID 0000.0001) // =======================================================
(PID.TID 0000.0001) // Begin MONITOR dynamic field statistics
(PID.TID 0000.0001) // =======================================================
(PID.TID 0000.0001) %MON time_tsnumber                =                   962
(PID.TID 0000.0001) %MON time_secondsf                =   9.6200000000000E+04
(PID.TID 0000.0001) %MON dynstat_eta_max              =   5.7958827470901E+00
(PID.TID 0000.0001) %MON dynstat_eta_min              =  -1.4198368388200E+01
(PID.TID 0000.0001) %MON dynstat_eta_mean             =  -2.5074408202501E+00
(PID.TID 0000.0001) %MON dynstat_eta_sd               =   4.9511015540709E+00
(PID.TID 0000.0001) %MON dynstat_eta_del2             =   2.0714826082717E-01
(PID.TID 0000.0001) %MON dynstat_uvel_max             =   4.1332386963617E-03
(PID.TID 0000.0001) %MON dynstat_uvel_min             =  -1.8364033945144E-02
(PID.TID 0000.0001) %MON dynstat_uvel_mean            =  -1.1892927847135E-07
(PID.TID 0000.0001) %MON dynstat_uvel_sd              =   5.4457023178887E-04
(PID.TID 0000.0001) %MON dynstat_uvel_del2            =   8.1977189150637E-07
(PID.TID 0000.0001) %MON dynstat_vvel_max             =   1.4681936722977E-02
(PID.TID 0000.0001) %MON dynstat_vvel_min             =  -6.3636852476003E-03
(PID.TID 0000.0001) %MON dynstat_vvel_mean            =   1.4682585301436E-05
(PID.TID 0000.0001) %MON dynstat_vvel_sd              =   3.4735129493102E-04
(PID.TID 0000.0001) %MON dynstat_vvel_del2            =   7.0226935000784E-07
(PID.TID 0000.0001) %MON dynstat_wvel_max             =   7.1625975828995E-04
(PID.TID 0000.0001) %MON dynstat_wvel_min             =  -7.0206339170878E-04
(PID.TID 0000.0001) %MON dynstat_wvel_mean            =   6.8494697336611E-09
(PID.TID 0000.0001) %MON dynstat_wvel_sd              =   1.5634672449912E-05
(PID.TID 0000.0001) %MON dynstat_wvel_del2            =   6.8598707838047E-08
(PID.TID 0000.0001) %MON dynstat_theta_max            =   1.2000000000000E+00
(PID.TID 0000.0001) %MON dynstat_theta_min            =  -1.0000000000000E+00
(PID.TID 0000.0001) %MON dynstat_theta_mean           =   5.6880791465014E-01
(PID.TID 0000.0001) %MON dynstat_theta_sd             =   8.6842431745609E-01
(PID.TID 0000.0001) %MON dynstat_theta_del2           =   2.2159996223327E-06
(PID.TID 0000.0001) %MON dynstat_salt_max             =   3.4700000000000E+01
(PID.TID 0000.0001) %MON dynstat_salt_min             =   3.4000000000000E+01
(PID.TID 0000.0001) %MON dynstat_salt_mean            =   3.4499137343216E+01
(PID.TID 0000.0001) %MON dynstat_salt_sd              =   2.7630652029192E-01
(PID.TID 0000.0001) %MON dynstat_salt_del2            =   8.7160308084269E-07
(PID.TID 0000.0001) %MON advcfl_uvel_max              =   1.8364033945144E-03
(PID.TID 0000.0001) %MON advcfl_vvel_max              =   1.4681936722977E-03
(PID.TID 0000.0001) %MON advcfl_wvel_max              =   3.5812987914498E-03
(PID.TID 0000.0001) %MON advcfl_W_hf_max              =   3.5812987914498E-03
(PID.TID 0000.0001) %MON pe_b_mean                    =  -8.3088654810325E-01
(PID.TID 0000.0001) %MON ke_max                       =   1.1213692495387E-04
(PID.TID 0000.0001) %MON ke_mean                      =   2.0576888687452E-07
(PID.TID 0000.0001) %MON ke_vol                       =   4.2724858620342E+12
(PID.TID 0000.0001) // =======================================================
(PID.TID 0000.0001) // End MONITOR dynamic field statistics
(PID.TID 0000.0001) // =======================================================
(PID.TID 0000.0001) // =======================================================
(PID.TID 0000.0001) // Begin OBCS MONITOR field statistics
(PID.TID 0000.0001) // =======================================================
(PID.TID 0000.0001) %MON obc_N_vVel_max               =   1.4427072440230E-05
(PID.TID 0000.0001) %MON obc_N_vVel_min               =   1.4427072440230E-05
(PID.TID 0000.0001) %MON obc_N_vVel_mean              =   1.4427072440230E-05
(PID.TID 0000.0001) %MON obc_N_vVel_sd                =  -2.3005960786631E-24
(PID.TID 0000.0001) %MON obc_N_vVel_Int               =   9.5218678105521E+02
(PID.TID 0000.0001) // =======================================================
(PID.TID 0000.0001) // End OBCS MONITOR field statistics
(PID.TID 0000.0001) // =======================================================
 cg2d: Sum(rhs),rhsMax =   4.51450508025629E+00  2.99927353532097E+02
(PID.TID 0000.0001)      cg2d_init_res =   6.49518115748046E-06
(PID.TID 0000.0001)      cg2d_iters(min,last) =      -1      81
(PID.TID 0000.0001)      cg2d_last_res =   9.75931867529317E-12
(PID.TID 0000.0001) // =======================================================
(PID.TID 0000.0001) // Begin MONITOR dynamic field statistics
(PID.TID 0000.0001) // =======================================================
(PID.TID 0000.0001) %MON time_tsnumber                =                   963
(PID.TID 0000.0001) %MON time_secondsf                =   9.6300000000000E+04
(PID.TID 0000.0001) %MON dynstat_eta_max              =   5.7958799714654E+00
(PID.TID 0000.0001) %MON dynstat_eta_min              =  -1.4198389570417E+01
(PID.TID 0000.0001) %MON dynstat_eta_mean             =  -2.5074510393120E+00
(PID.TID 0000.0001) %MON dynstat_eta_sd               =   4.9511051968838E+00
(PID.TID 0000.0001) %MON dynstat_eta_del2             =   2.0714828562291E-01
(PID.TID 0000.0001) %MON dynstat_uvel_max             =   4.1440245827182E-03
(PID.TID 0000.0001) %MON dynstat_uvel_min             =  -1.8409871142726E-02
(PID.TID 0000.0001) %MON dynstat_uvel_mean            =  -1.1898892092859E-07
(PID.TID 0000.0001) %MON dynstat_uvel_sd              =   5.4597586791107E-04
(PID.TID 0000.0001) %MON dynstat_uvel_del2            =   8.2160150438798E-07
(PID.TID 0000.0001) %MON dynstat_vvel_max             =   1.4717147656605E-02
(PID.TID 0000.0001) %MON dynstat_vvel_min             =  -6.3752891921016E-03
(PID.TID 0000.0001) %MON dynstat_vvel_mean            =   1.4727917715344E-05
(PID.TID 0000.0001) %MON dynstat_vvel_sd              =   3.4811079015419E-04
(PID.TID 0000.0001) %MON dynstat_vvel_del2            =   7.0414299284576E-07
(PID.TID 0000.0001) %MON dynstat_wvel_max             =   7.1828757533221E-04
(PID.TID 0000.0001) %MON dynstat_wvel_min             =  -7.0396490029384E-04
(PID.TID 0000.0001) %MON dynstat_wvel_mean            =   6.9105069744362E-09
(PID.TID 0000.0001) %MON dynstat_wvel_sd              =   1.5722001422373E-05
(PID.TID 0000.0001) %MON dynstat_wvel_del2            =   6.9236735924090E-08
(PID.TID 0000.0001) %MON dynstat_theta_max            =   1.2000000000000E+00
(PID.TID 0000.0001) %MON dynstat_theta_min            =  -1.0000000000000E+00
(PID.TID 0000.0001) %MON dynstat_theta_mean           =   5.6880721582737E-01
(PID.TID 0000.0001) %MON dynstat_theta_sd             =   8.6842393864610E-01
(PID.TID 0000.0001) %MON dynstat_theta_del2           =   2.2203477767131E-06
(PID.TID 0000.0001) %MON dynstat_salt_max             =   3.4700000000000E+01
(PID.TID 0000.0001) %MON dynstat_salt_min             =   3.4000000000000E+01
(PID.TID 0000.0001) %MON dynstat_salt_mean            =   3.4499137063707E+01
(PID.TID 0000.0001) %MON dynstat_salt_sd              =   2.7630637488720E-01
(PID.TID 0000.0001) %MON dynstat_salt_del2            =   8.7338025027516E-07
(PID.TID 0000.0001) %MON advcfl_uvel_max              =   1.8409871142726E-03
(PID.TID 0000.0001) %MON advcfl_vvel_max              =   1.4717147656605E-03
(PID.TID 0000.0001) %MON advcfl_wvel_max              =   3.5914378766610E-03
(PID.TID 0000.0001) %MON advcfl_W_hf_max              =   3.5914378766610E-03
(PID.TID 0000.0001) %MON pe_b_mean                    =  -8.3088929932903E-01
(PID.TID 0000.0001) %MON ke_max                       =   1.1281870089660E-04
(PID.TID 0000.0001) %MON ke_mean                      =   2.0678489665548E-07
(PID.TID 0000.0001) %MON ke_vol                       =   4.2724858015277E+12
(PID.TID 0000.0001) // =======================================================
(PID.TID 0000.0001) // End MONITOR dynamic field statistics
(PID.TID 0000.0001) // =======================================================
(PID.TID 0000.0001) // =======================================================
(PID.TID 0000.0001) // Begin OBCS MONITOR field statistics
(PID.TID 0000.0001) // =======================================================
(PID.TID 0000.0001) %MON obc_N_vVel_max               =   1.4467470311074E-05
(PID.TID 0000.0001) %MON obc_N_vVel_min               =   1.4467470311074E-05
(PID.TID 0000.0001) %MON obc_N_vVel_mean              =   1.4467470311074E-05
(PID.TID 0000.0001) %MON obc_N_vVel_sd                =  -1.5096046179093E-23
(PID.TID 0000.0001) %MON obc_N_vVel_Int               =   9.5485304053091E+02
(PID.TID 0000.0001) // =======================================================
(PID.TID 0000.0001) // End OBCS MONITOR field statistics
(PID.TID 0000.0001) // =======================================================
 cg2d: Sum(rhs),rhsMax =   4.51452230495802E+00  2.99927435684167E+02
(PID.TID 0000.0001)      cg2d_init_res =   6.53898203128108E-06
(PID.TID 0000.0001)      cg2d_iters(min,last) =      -1      81
(PID.TID 0000.0001)      cg2d_last_res =   9.77195982220627E-12
(PID.TID 0000.0001) // =======================================================
(PID.TID 0000.0001) // Begin MONITOR dynamic field statistics
(PID.TID 0000.0001) // =======================================================
(PID.TID 0000.0001) %MON time_tsnumber                =                   964
(PID.TID 0000.0001) %MON time_secondsf                =   9.6400000000000E+04
(PID.TID 0000.0001) %MON dynstat_eta_max              =   5.7958771548042E+00
(PID.TID 0000.0001) %MON dynstat_eta_min              =  -1.4198410824014E+01
(PID.TID 0000.0001) %MON dynstat_eta_mean             =  -2.5074612930834E+00
(PID.TID 0000.0001) %MON dynstat_eta_sd               =   4.9511088532633E+00
(PID.TID 0000.0001) %MON dynstat_eta_del2             =   2.0714831048921E-01
(PID.TID 0000.0001) %MON dynstat_uvel_max             =   4.1548328031524E-03
(PID.TID 0000.0001) %MON dynstat_uvel_min             =  -1.8455775933184E-02
(PID.TID 0000.0001) %MON dynstat_uvel_mean            =  -1.1903437429083E-07
(PID.TID 0000.0001) %MON dynstat_uvel_sd              =   5.4738481811848E-04
(PID.TID 0000.0001) %MON dynstat_uvel_del2            =   8.2343655647706E-07
(PID.TID 0000.0001) %MON dynstat_vvel_max             =   1.4752411211557E-02
(PID.TID 0000.0001) %MON dynstat_vvel_min             =  -6.3869060413255E-03
(PID.TID 0000.0001) %MON dynstat_vvel_mean            =   1.4774999864184E-05
(PID.TID 0000.0001) %MON dynstat_vvel_sd              =   3.4888294547054E-04
(PID.TID 0000.0001) %MON dynstat_vvel_del2            =   7.0600884003985E-07
(PID.TID 0000.0001) %MON dynstat_wvel_max             =   7.2031949817230E-04
(PID.TID 0000.0001) %MON dynstat_wvel_min             =  -7.0587042690446E-04
(PID.TID 0000.0001) %MON dynstat_wvel_mean            =   6.9713169714496E-09
(PID.TID 0000.0001) %MON dynstat_wvel_sd              =   1.5840802825570E-05
(PID.TID 0000.0001) %MON dynstat_wvel_del2            =   6.9959201685975E-08
(PID.TID 0000.0001) %MON dynstat_theta_max            =   1.2000000000000E+00
(PID.TID 0000.0001) %MON dynstat_theta_min            =  -1.0000000000000E+00
(PID.TID 0000.0001) %MON dynstat_theta_mean           =   5.6880651556828E-01
(PID.TID 0000.0001) %MON dynstat_theta_sd             =   8.6842355903397E-01
(PID.TID 0000.0001) %MON dynstat_theta_del2           =   2.2246625228163E-06
(PID.TID 0000.0001) %MON dynstat_salt_max             =   3.4700000000000E+01
(PID.TID 0000.0001) %MON dynstat_salt_min             =   3.4000000000000E+01
(PID.TID 0000.0001) %MON dynstat_salt_mean            =   3.4499136783623E+01
(PID.TID 0000.0001) %MON dynstat_salt_sd              =   2.7630622917214E-01
(PID.TID 0000.0001) %MON dynstat_salt_del2            =   8.7514889945558E-07
(PID.TID 0000.0001) %MON advcfl_uvel_max              =   1.8455775933184E-03
(PID.TID 0000.0001) %MON advcfl_vvel_max              =   1.4752411211557E-03
(PID.TID 0000.0001) %MON advcfl_wvel_max              =   3.6015974908615E-03
(PID.TID 0000.0001) %MON advcfl_W_hf_max              =   3.6015974908615E-03
(PID.TID 0000.0001) %MON pe_b_mean                    =  -8.3089205860038E-01
(PID.TID 0000.0001) %MON ke_max                       =   1.1350412628422E-04
(PID.TID 0000.0001) %MON ke_mean                      =   2.0780964213923E-07
(PID.TID 0000.0001) %MON ke_vol                       =   4.2724857408265E+12
(PID.TID 0000.0001) // =======================================================
(PID.TID 0000.0001) // End MONITOR dynamic field statistics
(PID.TID 0000.0001) // =======================================================
(PID.TID 0000.0001) // =======================================================
(PID.TID 0000.0001) // Begin OBCS MONITOR field statistics
(PID.TID 0000.0001) // =======================================================
(PID.TID 0000.0001) %MON obc_N_vVel_max               =   1.4509610049934E-05
(PID.TID 0000.0001) %MON obc_N_vVel_min               =   1.4509610049933E-05
(PID.TID 0000.0001) %MON obc_N_vVel_mean              =   1.4509610049933E-05
(PID.TID 0000.0001) %MON obc_N_vVel_sd                =   3.0758540693725E-12
(PID.TID 0000.0001) %MON obc_N_vVel_Int               =   9.5763426329559E+02
(PID.TID 0000.0001) // =======================================================
(PID.TID 0000.0001) // End OBCS MONITOR field statistics
(PID.TID 0000.0001) // =======================================================
 cg2d: Sum(rhs),rhsMax =   4.51453957690080E+00  2.99927519045553E+02
(PID.TID 0000.0001)      cg2d_init_res =   6.58354942074027E-06
(PID.TID 0000.0001)      cg2d_iters(min,last) =      -1      81
(PID.TID 0000.0001)      cg2d_last_res =   9.78313932261333E-12
(PID.TID 0000.0001) // =======================================================
(PID.TID 0000.0001) // Begin MONITOR dynamic field statistics
(PID.TID 0000.0001) // =======================================================
(PID.TID 0000.0001) %MON time_tsnumber                =                   965
(PID.TID 0000.0001) %MON time_secondsf                =   9.6500000000000E+04
(PID.TID 0000.0001) %MON dynstat_eta_max              =   5.7958742947477E+00
(PID.TID 0000.0001) %MON dynstat_eta_min              =  -1.4198432151642E+01
(PID.TID 0000.0001) %MON dynstat_eta_mean             =  -2.5074715832089E+00
(PID.TID 0000.0001) %MON dynstat_eta_sd               =   4.9511125235145E+00
(PID.TID 0000.0001) %MON dynstat_eta_del2             =   2.0714833542630E-01
(PID.TID 0000.0001) %MON dynstat_uvel_max             =   4.1656634087559E-03
(PID.TID 0000.0001) %MON dynstat_uvel_min             =  -1.8501748203214E-02
(PID.TID 0000.0001) %MON dynstat_uvel_mean            =  -1.1906505351924E-07
(PID.TID 0000.0001) %MON dynstat_uvel_sd              =   5.4879709624427E-04
(PID.TID 0000.0001) %MON dynstat_uvel_del2            =   8.2527711395468E-07
(PID.TID 0000.0001) %MON dynstat_vvel_max             =   1.4787727301691E-02
(PID.TID 0000.0001) %MON dynstat_vvel_min             =  -6.3985358315266E-03
(PID.TID 0000.0001) %MON dynstat_vvel_mean            =   1.4823553243930E-05
(PID.TID 0000.0001) %MON dynstat_vvel_sd              =   3.4966646532382E-04
(PID.TID 0000.0001) %MON dynstat_vvel_del2            =   7.0785480979737E-07
(PID.TID 0000.0001) %MON dynstat_wvel_max             =   7.2235552780831E-04
(PID.TID 0000.0001) %MON dynstat_wvel_min             =  -7.0777996873693E-04
(PID.TID 0000.0001) %MON dynstat_wvel_mean            =   7.0314919531918E-09
(PID.TID 0000.0001) %MON dynstat_wvel_sd              =   1.5986719915381E-05
(PID.TID 0000.0001) %MON dynstat_wvel_del2            =   7.0739128633252E-08
(PID.TID 0000.0001) %MON dynstat_theta_max            =   1.2000000000000E+00
(PID.TID 0000.0001) %MON dynstat_theta_min            =  -1.0000000000000E+00
(PID.TID 0000.0001) %MON dynstat_theta_mean           =   5.6880581387605E-01
(PID.TID 0000.0001) %MON dynstat_theta_sd             =   8.6842317861570E-01
(PID.TID 0000.0001) %MON dynstat_theta_del2           =   2.2289571031046E-06
(PID.TID 0000.0001) %MON dynstat_salt_max             =   3.4700000000000E+01
(PID.TID 0000.0001) %MON dynstat_salt_min             =   3.4000000000000E+01
(PID.TID 0000.0001) %MON dynstat_salt_mean            =   3.4499136502963E+01
(PID.TID 0000.0001) %MON dynstat_salt_sd              =   2.7630608314527E-01
(PID.TID 0000.0001) %MON dynstat_salt_del2            =   8.7691249157120E-07
(PID.TID 0000.0001) %MON advcfl_uvel_max              =   1.8501748203214E-03
(PID.TID 0000.0001) %MON advcfl_vvel_max              =   1.4787727301691E-03
(PID.TID 0000.0001) %MON advcfl_wvel_max              =   3.6117776390416E-03
(PID.TID 0000.0001) %MON advcfl_W_hf_max              =   3.6117776390416E-03
(PID.TID 0000.0001) %MON pe_b_mean                    =  -8.3089482626506E-01
(PID.TID 0000.0001) %MON ke_max                       =   1.1419321649914E-04
(PID.TID 0000.0001) %MON ke_mean                      =   2.0884271699311E-07
(PID.TID 0000.0001) %MON ke_vol                       =   4.2724856799191E+12
(PID.TID 0000.0001) // =======================================================
(PID.TID 0000.0001) // End MONITOR dynamic field statistics
(PID.TID 0000.0001) // =======================================================
(PID.TID 0000.0001) // =======================================================
(PID.TID 0000.0001) // Begin OBCS MONITOR field statistics
(PID.TID 0000.0001) // =======================================================
(PID.TID 0000.0001) %MON obc_N_vVel_max               =   1.4553246241750E-05
(PID.TID 0000.0001) %MON obc_N_vVel_min               =   1.4553246241750E-05
(PID.TID 0000.0001) %MON obc_N_vVel_mean              =   1.4553246241750E-05
(PID.TID 0000.0001) %MON obc_N_vVel_sd                =   9.3748568033735E-13
(PID.TID 0000.0001) %MON obc_N_vVel_Int               =   9.6051425195549E+02
(PID.TID 0000.0001) // =======================================================
(PID.TID 0000.0001) // End OBCS MONITOR field statistics
(PID.TID 0000.0001) // =======================================================
 cg2d: Sum(rhs),rhsMax =   4.51455689915133E+00  2.99927603574127E+02
(PID.TID 0000.0001)      cg2d_init_res =   6.62829002557855E-06
(PID.TID 0000.0001)      cg2d_iters(min,last) =      -1      81
(PID.TID 0000.0001)      cg2d_last_res =   9.79301391745797E-12
(PID.TID 0000.0001) // =======================================================
(PID.TID 0000.0001) // Begin MONITOR dynamic field statistics
(PID.TID 0000.0001) // =======================================================
(PID.TID 0000.0001) %MON time_tsnumber                =                   966
(PID.TID 0000.0001) %MON time_secondsf                =   9.6600000000000E+04
(PID.TID 0000.0001) %MON dynstat_eta_max              =   5.7958713894674E+00
(PID.TID 0000.0001) %MON dynstat_eta_min              =  -1.4198453555429E+01
(PID.TID 0000.0001) %MON dynstat_eta_mean             =  -2.5074819110398E+00
(PID.TID 0000.0001) %MON dynstat_eta_sd               =   4.9511162078390E+00
(PID.TID 0000.0001) %MON dynstat_eta_del2             =   2.0714836043444E-01
(PID.TID 0000.0001) %MON dynstat_uvel_max             =   4.1765164510785E-03
(PID.TID 0000.0001) %MON dynstat_uvel_min             =  -1.8547787839619E-02
(PID.TID 0000.0001) %MON dynstat_uvel_mean            =  -1.1908046657825E-07
(PID.TID 0000.0001) %MON dynstat_uvel_sd              =   5.5021271699404E-04
(PID.TID 0000.0001) %MON dynstat_uvel_del2            =   8.2712324282332E-07
(PID.TID 0000.0001) %MON dynstat_vvel_max             =   1.4823095837941E-02
(PID.TID 0000.0001) %MON dynstat_vvel_min             =  -6.4101785995367E-03
(PID.TID 0000.0001) %MON dynstat_vvel_mean            =   1.4873284105147E-05
(PID.TID 0000.0001) %MON dynstat_vvel_sd              =   3.5045971435011E-04
(PID.TID 0000.0001) %MON dynstat_vvel_del2            =   7.0966787060329E-07
(PID.TID 0000.0001) %MON dynstat_wvel_max             =   7.2439566519589E-04
(PID.TID 0000.0001) %MON dynstat_wvel_min             =  -7.0969352296463E-04
(PID.TID 0000.0001) %MON dynstat_wvel_mean            =   7.0906207623262E-09
(PID.TID 0000.0001) %MON dynstat_wvel_sd              =   1.6154272409782E-05
(PID.TID 0000.0001) %MON dynstat_wvel_del2            =   7.1544895704201E-08
(PID.TID 0000.0001) %MON dynstat_theta_max            =   1.2000000000000E+00
(PID.TID 0000.0001) %MON dynstat_theta_min            =  -1.0000000000000E+00
(PID.TID 0000.0001) %MON dynstat_theta_mean           =   5.6880511075320E-01
(PID.TID 0000.0001) %MON dynstat_theta_sd             =   8.6842279739229E-01
(PID.TID 0000.0001) %MON dynstat_theta_del2           =   2.2332464656715E-06
(PID.TID 0000.0001) %MON dynstat_salt_max             =   3.4700000000000E+01
(PID.TID 0000.0001) %MON dynstat_salt_min             =   3.4000000000000E+01
(PID.TID 0000.0001) %MON dynstat_salt_mean            =   3.4499136221728E+01
(PID.TID 0000.0001) %MON dynstat_salt_sd              =   2.7630593680710E-01
(PID.TID 0000.0001) %MON dynstat_salt_del2            =   8.7867481553691E-07
(PID.TID 0000.0001) %MON advcfl_uvel_max              =   1.8547787839619E-03
(PID.TID 0000.0001) %MON advcfl_vvel_max              =   1.4823095837941E-03
(PID.TID 0000.0001) %MON advcfl_wvel_max              =   3.6219783259795E-03
(PID.TID 0000.0001) %MON advcfl_W_hf_max              =   3.6219783259795E-03
(PID.TID 0000.0001) %MON pe_b_mean                    =  -8.3089760259380E-01
(PID.TID 0000.0001) %MON ke_max                       =   1.1488598697628E-04
(PID.TID 0000.0001) %MON ke_mean                      =   2.0988359247254E-07
(PID.TID 0000.0001) %MON ke_vol                       =   4.2724856187957E+12
(PID.TID 0000.0001) // =======================================================
(PID.TID 0000.0001) // End MONITOR dynamic field statistics
(PID.TID 0000.0001) // =======================================================
(PID.TID 0000.0001) // =======================================================
(PID.TID 0000.0001) // Begin OBCS MONITOR field statistics
(PID.TID 0000.0001) // =======================================================
(PID.TID 0000.0001) %MON obc_N_vVel_max               =   1.4598118758729E-05
(PID.TID 0000.0001) %MON obc_N_vVel_min               =   1.4598118758729E-05
(PID.TID 0000.0001) %MON obc_N_vVel_mean              =   1.4598118758729E-05
(PID.TID 0000.0001) %MON obc_N_vVel_sd                =  -1.2097516458588E-23
(PID.TID 0000.0001) %MON obc_N_vVel_Int               =   9.6347583807612E+02
(PID.TID 0000.0001) // =======================================================
(PID.TID 0000.0001) // End OBCS MONITOR field statistics
(PID.TID 0000.0001) // =======================================================
 cg2d: Sum(rhs),rhsMax =   4.51457427437045E+00  2.99927689218708E+02
(PID.TID 0000.0001)      cg2d_init_res =   6.67279861784573E-06
(PID.TID 0000.0001)      cg2d_iters(min,last) =      -1      81
(PID.TID 0000.0001)      cg2d_last_res =   9.80166010667775E-12
(PID.TID 0000.0001) // =======================================================
(PID.TID 0000.0001) // Begin MONITOR dynamic field statistics
(PID.TID 0000.0001) // =======================================================
(PID.TID 0000.0001) %MON time_tsnumber                =                   967
(PID.TID 0000.0001) %MON time_secondsf                =   9.6700000000000E+04
(PID.TID 0000.0001) %MON dynstat_eta_max              =   5.7958684376807E+00
(PID.TID 0000.0001) %MON dynstat_eta_min              =  -1.4198475036953E+01
(PID.TID 0000.0001) %MON dynstat_eta_mean             =  -2.5074922776262E+00
(PID.TID 0000.0001) %MON dynstat_eta_sd               =   4.9511199063238E+00
(PID.TID 0000.0001) %MON dynstat_eta_del2             =   2.0714838551353E-01
(PID.TID 0000.0001) %MON dynstat_uvel_max             =   4.1873919818833E-03
(PID.TID 0000.0001) %MON dynstat_uvel_min             =  -1.8593894729936E-02
(PID.TID 0000.0001) %MON dynstat_uvel_mean            =  -1.1908022209645E-07
(PID.TID 0000.0001) %MON dynstat_uvel_sd              =   5.5163169558017E-04
(PID.TID 0000.0001) %MON dynstat_uvel_del2            =   8.2897500668372E-07
(PID.TID 0000.0001) %MON dynstat_vvel_max             =   1.4858516728531E-02
(PID.TID 0000.0001) %MON dynstat_vvel_min             =  -6.4218343837350E-03
(PID.TID 0000.0001) %MON dynstat_vvel_mean            =   1.4923885261247E-05
(PID.TID 0000.0001) %MON dynstat_vvel_sd              =   3.5126078124133E-04
(PID.TID 0000.0001) %MON dynstat_vvel_del2            =   7.1143480386620E-07
(PID.TID 0000.0001) %MON dynstat_wvel_max             =   7.2643991124386E-04
(PID.TID 0000.0001) %MON dynstat_wvel_min             =  -7.1161108639899E-04
(PID.TID 0000.0001) %MON dynstat_wvel_mean            =   7.1482915293506E-09
(PID.TID 0000.0001) %MON dynstat_wvel_sd              =   1.6337246418038E-05
(PID.TID 0000.0001) %MON dynstat_wvel_del2            =   7.2342991955724E-08
(PID.TID 0000.0001) %MON dynstat_theta_max            =   1.2000000000000E+00
(PID.TID 0000.0001) %MON dynstat_theta_min            =  -1.0000000000000E+00
(PID.TID 0000.0001) %MON dynstat_theta_mean           =   5.6880440620225E-01
(PID.TID 0000.0001) %MON dynstat_theta_sd             =   8.6842241536865E-01
(PID.TID 0000.0001) %MON dynstat_theta_del2           =   2.2375463792098E-06
(PID.TID 0000.0001) %MON dynstat_salt_max             =   3.4700000000000E+01
(PID.TID 0000.0001) %MON dynstat_salt_min             =   3.4000000000000E+01
(PID.TID 0000.0001) %MON dynstat_salt_mean            =   3.4499135939918E+01
(PID.TID 0000.0001) %MON dynstat_salt_sd              =   2.7630579015902E-01
(PID.TID 0000.0001) %MON dynstat_salt_del2            =   8.8043988758119E-07
(PID.TID 0000.0001) %MON advcfl_uvel_max              =   1.8593894729936E-03
(PID.TID 0000.0001) %MON advcfl_vvel_max              =   1.4858516728531E-03
(PID.TID 0000.0001) %MON advcfl_wvel_max              =   3.6321995562193E-03
(PID.TID 0000.0001) %MON advcfl_W_hf_max              =   3.6321995562193E-03
(PID.TID 0000.0001) %MON pe_b_mean                    =  -8.3090038777778E-01
(PID.TID 0000.0001) %MON ke_max                       =   1.1558245320754E-04
(PID.TID 0000.0001) %MON ke_mean                      =   2.1093163817883E-07
(PID.TID 0000.0001) %MON ke_vol                       =   4.2724855574484E+12
(PID.TID 0000.0001) // =======================================================
(PID.TID 0000.0001) // End MONITOR dynamic field statistics
(PID.TID 0000.0001) // =======================================================
(PID.TID 0000.0001) // =======================================================
(PID.TID 0000.0001) // Begin OBCS MONITOR field statistics
(PID.TID 0000.0001) // =======================================================
(PID.TID 0000.0001) %MON obc_N_vVel_max               =   1.4643954301520E-05
(PID.TID 0000.0001) %MON obc_N_vVel_min               =   1.4643954301520E-05
(PID.TID 0000.0001) %MON obc_N_vVel_mean              =   1.4643954301520E-05
(PID.TID 0000.0001) %MON obc_N_vVel_sd                =   4.5559920430410E-12
(PID.TID 0000.0001) %MON obc_N_vVel_Int               =   9.6650098390031E+02
(PID.TID 0000.0001) // =======================================================
(PID.TID 0000.0001) // End OBCS MONITOR field statistics
(PID.TID 0000.0001) // =======================================================
 cg2d: Sum(rhs),rhsMax =   4.51459170478630E+00  2.99927775919296E+02
(PID.TID 0000.0001)      cg2d_init_res =   6.71668357352590E-06
(PID.TID 0000.0001)      cg2d_iters(min,last) =      -1      81
(PID.TID 0000.0001)      cg2d_last_res =   9.80924446483897E-12
(PID.TID 0000.0001) // =======================================================
(PID.TID 0000.0001) // Begin MONITOR dynamic field statistics
(PID.TID 0000.0001) // =======================================================
(PID.TID 0000.0001) %MON time_tsnumber                =                   968
(PID.TID 0000.0001) %MON time_secondsf                =   9.6800000000000E+04
(PID.TID 0000.0001) %MON dynstat_eta_max              =   5.7958654386742E+00
(PID.TID 0000.0001) %MON dynstat_eta_min              =  -1.4198496597231E+01
(PID.TID 0000.0001) %MON dynstat_eta_mean             =  -2.5075026837042E+00
(PID.TID 0000.0001) %MON dynstat_eta_sd               =   4.9511236189388E+00
(PID.TID 0000.0001) %MON dynstat_eta_del2             =   2.0714841066331E-01
(PID.TID 0000.0001) %MON dynstat_uvel_max             =   4.1982900533313E-03
(PID.TID 0000.0001) %MON dynstat_uvel_min             =  -1.8640068761485E-02
(PID.TID 0000.0001) %MON dynstat_uvel_mean            =  -1.1906403668863E-07
(PID.TID 0000.0001) %MON dynstat_uvel_sd              =   5.5305404733059E-04
(PID.TID 0000.0001) %MON dynstat_uvel_del2            =   8.3083246521164E-07
(PID.TID 0000.0001) %MON dynstat_vvel_max             =   1.4893989879252E-02
(PID.TID 0000.0001) %MON dynstat_vvel_min             =  -6.4335032232590E-03
(PID.TID 0000.0001) %MON dynstat_vvel_mean            =   1.4975038030101E-05
(PID.TID 0000.0001) %MON dynstat_vvel_sd              =   3.5206755242286E-04
(PID.TID 0000.0001) %MON dynstat_vvel_del2            =   7.1314301011283E-07
(PID.TID 0000.0001) %MON dynstat_wvel_max             =   7.2848826683085E-04
(PID.TID 0000.0001) %MON dynstat_wvel_min             =  -7.1353265579362E-04
(PID.TID 0000.0001) %MON dynstat_wvel_mean            =   7.2040955044189E-09
(PID.TID 0000.0001) %MON dynstat_wvel_sd              =   1.6529096141887E-05
(PID.TID 0000.0001) %MON dynstat_wvel_del2            =   7.3100709480582E-08
(PID.TID 0000.0001) %MON dynstat_theta_max            =   1.2000000000000E+00
(PID.TID 0000.0001) %MON dynstat_theta_min            =  -1.0000000000000E+00
(PID.TID 0000.0001) %MON dynstat_theta_mean           =   5.6880370022561E-01
(PID.TID 0000.0001) %MON dynstat_theta_sd             =   8.6842203254954E-01
(PID.TID 0000.0001) %MON dynstat_theta_del2           =   2.2418726223765E-06
(PID.TID 0000.0001) %MON dynstat_salt_max             =   3.4700000000000E+01
(PID.TID 0000.0001) %MON dynstat_salt_min             =   3.4000000000000E+01
(PID.TID 0000.0001) %MON dynstat_salt_mean            =   3.4499135657536E+01
(PID.TID 0000.0001) %MON dynstat_salt_sd              =   2.7630564320265E-01
(PID.TID 0000.0001) %MON dynstat_salt_del2            =   8.8221183322549E-07
(PID.TID 0000.0001) %MON advcfl_uvel_max              =   1.8640068761485E-03
(PID.TID 0000.0001) %MON advcfl_vvel_max              =   1.4893989879252E-03
(PID.TID 0000.0001) %MON advcfl_wvel_max              =   3.6424413341542E-03
(PID.TID 0000.0001) %MON advcfl_W_hf_max              =   3.6424413341542E-03
(PID.TID 0000.0001) %MON pe_b_mean                    =  -8.3090318192595E-01
(PID.TID 0000.0001) %MON ke_max                       =   1.1628263074025E-04
(PID.TID 0000.0001) %MON ke_mean                      =   2.1198614655158E-07
(PID.TID 0000.0001) %MON ke_vol                       =   4.2724854958709E+12
(PID.TID 0000.0001) // =======================================================
(PID.TID 0000.0001) // End MONITOR dynamic field statistics
(PID.TID 0000.0001) // =======================================================
(PID.TID 0000.0001) // =======================================================
(PID.TID 0000.0001) // Begin OBCS MONITOR field statistics
(PID.TID 0000.0001) // =======================================================
(PID.TID 0000.0001) %MON obc_N_vVel_max               =   1.4690468038232E-05
(PID.TID 0000.0001) %MON obc_N_vVel_min               =   1.4690468038231E-05
(PID.TID 0000.0001) %MON obc_N_vVel_mean              =   1.4690468038231E-05
(PID.TID 0000.0001) %MON obc_N_vVel_sd                =   4.5218216203810E-12
(PID.TID 0000.0001) %MON obc_N_vVel_Int               =   9.6957089052327E+02
(PID.TID 0000.0001) // =======================================================
(PID.TID 0000.0001) // End OBCS MONITOR field statistics
(PID.TID 0000.0001) // =======================================================
 cg2d: Sum(rhs),rhsMax =   4.51460919216184E+00  2.99927863607620E+02
(PID.TID 0000.0001)      cg2d_init_res =   6.75947157729407E-06
(PID.TID 0000.0001)      cg2d_iters(min,last) =      -1      81
(PID.TID 0000.0001)      cg2d_last_res =   9.81597472724611E-12
(PID.TID 0000.0001) // =======================================================
(PID.TID 0000.0001) // Begin MONITOR dynamic field statistics
(PID.TID 0000.0001) // =======================================================
(PID.TID 0000.0001) %MON time_tsnumber                =                   969
(PID.TID 0000.0001) %MON time_secondsf                =   9.6900000000000E+04
(PID.TID 0000.0001) %MON dynstat_eta_max              =   5.7958623923199E+00
(PID.TID 0000.0001) %MON dynstat_eta_min              =  -1.4198518236693E+01
(PID.TID 0000.0001) %MON dynstat_eta_mean             =  -2.5075131296823E+00
(PID.TID 0000.0001) %MON dynstat_eta_sd               =   4.9511273455390E+00
(PID.TID 0000.0001) %MON dynstat_eta_del2             =   2.0714843588343E-01
(PID.TID 0000.0001) %MON dynstat_uvel_max             =   4.2092107175442E-03
(PID.TID 0000.0001) %MON dynstat_uvel_min             =  -1.8686309821618E-02
(PID.TID 0000.0001) %MON dynstat_uvel_mean            =  -1.1903172783894E-07
(PID.TID 0000.0001) %MON dynstat_uvel_sd              =   5.5447978724509E-04
(PID.TID 0000.0001) %MON dynstat_uvel_del2            =   8.3269567330479E-07
(PID.TID 0000.0001) %MON dynstat_vvel_max             =   1.4929515193810E-02
(PID.TID 0000.0001) %MON dynstat_vvel_min             =  -6.4451851578085E-03
(PID.TID 0000.0001) %MON dynstat_vvel_mean            =   1.5026414310959E-05
(PID.TID 0000.0001) %MON dynstat_vvel_sd              =   3.5287779144992E-04
(PID.TID 0000.0001) %MON dynstat_vvel_del2            =   7.1478128955943E-07
(PID.TID 0000.0001) %MON dynstat_wvel_max             =   7.3054073278429E-04
(PID.TID 0000.0001) %MON dynstat_wvel_min             =  -7.1545822770672E-04
(PID.TID 0000.0001) %MON dynstat_wvel_mean            =   7.2576291541440E-09
(PID.TID 0000.0001) %MON dynstat_wvel_sd              =   1.6723316705358E-05
(PID.TID 0000.0001) %MON dynstat_wvel_del2            =   7.3788517292235E-08
(PID.TID 0000.0001) %MON dynstat_theta_max            =   1.2000000000000E+00
(PID.TID 0000.0001) %MON dynstat_theta_min            =  -1.0000000000000E+00
(PID.TID 0000.0001) %MON dynstat_theta_mean           =   5.6880299282512E-01
(PID.TID 0000.0001) %MON dynstat_theta_sd             =   8.6842164893785E-01
(PID.TID 0000.0001) %MON dynstat_theta_del2           =   2.2462401239513E-06
(PID.TID 0000.0001) %MON dynstat_salt_max             =   3.4700000000000E+01
(PID.TID 0000.0001) %MON dynstat_salt_min             =   3.4000000000000E+01
(PID.TID 0000.0001) %MON dynstat_salt_mean            =   3.4499135374579E+01
(PID.TID 0000.0001) %MON dynstat_salt_sd              =   2.7630549593895E-01
(PID.TID 0000.0001) %MON dynstat_salt_del2            =   8.8399424190613E-07
(PID.TID 0000.0001) %MON advcfl_uvel_max              =   1.8686309821618E-03
(PID.TID 0000.0001) %MON advcfl_vvel_max              =   1.4929515193810E-03
(PID.TID 0000.0001) %MON advcfl_wvel_max              =   3.6527036639214E-03
(PID.TID 0000.0001) %MON advcfl_W_hf_max              =   3.6527036639214E-03
(PID.TID 0000.0001) %MON pe_b_mean                    =  -8.3090598506200E-01
(PID.TID 0000.0001) %MON ke_max                       =   1.1698653517989E-04
(PID.TID 0000.0001) %MON ke_mean                      =   2.1304635971882E-07
(PID.TID 0000.0001) %MON ke_vol                       =   4.2724854340588E+12
(PID.TID 0000.0001) // =======================================================
(PID.TID 0000.0001) // End MONITOR dynamic field statistics
(PID.TID 0000.0001) // =======================================================
(PID.TID 0000.0001) // =======================================================
(PID.TID 0000.0001) // Begin OBCS MONITOR field statistics
(PID.TID 0000.0001) // =======================================================
(PID.TID 0000.0001) %MON obc_N_vVel_max               =   1.4737365453030E-05
(PID.TID 0000.0001) %MON obc_N_vVel_min               =   1.4737365453030E-05
(PID.TID 0000.0001) %MON obc_N_vVel_mean              =   1.4737365453030E-05
(PID.TID 0000.0001) %MON obc_N_vVel_sd                =  -8.0133121841075E-25
(PID.TID 0000.0001) %MON obc_N_vVel_Int               =   9.7266611989997E+02
(PID.TID 0000.0001) // =======================================================
(PID.TID 0000.0001) // End OBCS MONITOR field statistics
(PID.TID 0000.0001) // =======================================================
 cg2d: Sum(rhs),rhsMax =   4.51462673778179E+00  2.99927952207199E+02
(PID.TID 0000.0001)      cg2d_init_res =   6.80069516920412E-06
(PID.TID 0000.0001)      cg2d_iters(min,last) =      -1      81
(PID.TID 0000.0001)      cg2d_last_res =   9.82205209120252E-12
(PID.TID 0000.0001) // =======================================================
(PID.TID 0000.0001) // Begin MONITOR dynamic field statistics
(PID.TID 0000.0001) // =======================================================
(PID.TID 0000.0001) %MON time_tsnumber                =                   970
(PID.TID 0000.0001) %MON time_secondsf                =   9.7000000000000E+04
(PID.TID 0000.0001) %MON dynstat_eta_max              =   5.7958592990820E+00
(PID.TID 0000.0001) %MON dynstat_eta_min              =  -1.4198539955169E+01
(PID.TID 0000.0001) %MON dynstat_eta_mean             =  -2.5075236156347E+00
(PID.TID 0000.0001) %MON dynstat_eta_sd               =   4.9511310858605E+00
(PID.TID 0000.0001) %MON dynstat_eta_del2             =   2.0714846117315E-01
(PID.TID 0000.0001) %MON dynstat_uvel_max             =   4.2201540262852E-03
(PID.TID 0000.0001) %MON dynstat_uvel_min             =  -1.8732617798076E-02
(PID.TID 0000.0001) %MON dynstat_uvel_mean            =  -1.1898322717634E-07
(PID.TID 0000.0001) %MON dynstat_uvel_sd              =   5.5590892957453E-04
(PID.TID 0000.0001) %MON dynstat_uvel_del2            =   8.3456467933036E-07
(PID.TID 0000.0001) %MON dynstat_vvel_max             =   1.4965092574031E-02
(PID.TID 0000.0001) %MON dynstat_vvel_min             =  -6.4568802274154E-03
(PID.TID 0000.0001) %MON dynstat_vvel_mean            =   1.5077678820244E-05
(PID.TID 0000.0001) %MON dynstat_vvel_sd              =   3.5368921996866E-04
(PID.TID 0000.0001) %MON dynstat_vvel_del2            =   7.1634053126643E-07
(PID.TID 0000.0001) %MON dynstat_wvel_max             =   7.3259730988857E-04
(PID.TID 0000.0001) %MON dynstat_wvel_min             =  -7.1738779860496E-04
(PID.TID 0000.0001) %MON dynstat_wvel_mean            =   7.3084997030295E-09
(PID.TID 0000.0001) %MON dynstat_wvel_sd              =   1.6913759198428E-05
(PID.TID 0000.0001) %MON dynstat_wvel_del2            =   7.4381946279372E-08
(PID.TID 0000.0001) %MON dynstat_theta_max            =   1.2000000000000E+00
(PID.TID 0000.0001) %MON dynstat_theta_min            =  -1.0000000000000E+00
(PID.TID 0000.0001) %MON dynstat_theta_mean           =   5.6880228400222E-01
(PID.TID 0000.0001) %MON dynstat_theta_sd             =   8.6842126453663E-01
(PID.TID 0000.0001) %MON dynstat_theta_del2           =   2.2506619803416E-06
(PID.TID 0000.0001) %MON dynstat_salt_max             =   3.4700000000000E+01
(PID.TID 0000.0001) %MON dynstat_salt_min             =   3.4000000000000E+01
(PID.TID 0000.0001) %MON dynstat_salt_mean            =   3.4499135091050E+01
(PID.TID 0000.0001) %MON dynstat_salt_sd              =   2.7630534836872E-01
(PID.TID 0000.0001) %MON dynstat_salt_del2            =   8.8579048660394E-07
(PID.TID 0000.0001) %MON advcfl_uvel_max              =   1.8732617798076E-03
(PID.TID 0000.0001) %MON advcfl_vvel_max              =   1.4965092574031E-03
(PID.TID 0000.0001) %MON advcfl_wvel_max              =   3.6629865494429E-03
(PID.TID 0000.0001) %MON advcfl_W_hf_max              =   3.6629865494428E-03
(PID.TID 0000.0001) %MON pe_b_mean                    =  -8.3090879712344E-01
(PID.TID 0000.0001) %MON ke_max                       =   1.1769418219211E-04
(PID.TID 0000.0001) %MON ke_mean                      =   2.1411149733200E-07
(PID.TID 0000.0001) %MON ke_vol                       =   4.2724853720097E+12
(PID.TID 0000.0001) // =======================================================
(PID.TID 0000.0001) // End MONITOR dynamic field statistics
(PID.TID 0000.0001) // =======================================================
(PID.TID 0000.0001) // =======================================================
(PID.TID 0000.0001) // Begin OBCS MONITOR field statistics
(PID.TID 0000.0001) // =======================================================
(PID.TID 0000.0001) %MON obc_N_vVel_max               =   1.4784344253490E-05
(PID.TID 0000.0001) %MON obc_N_vVel_min               =   1.4784344253490E-05
(PID.TID 0000.0001) %MON obc_N_vVel_mean              =   1.4784344253490E-05
(PID.TID 0000.0001) %MON obc_N_vVel_sd                =  -1.6000774974073E-23
(PID.TID 0000.0001) %MON obc_N_vVel_Int               =   9.7576672073034E+02
(PID.TID 0000.0001) // =======================================================
(PID.TID 0000.0001) // End OBCS MONITOR field statistics
(PID.TID 0000.0001) // =======================================================
 cg2d: Sum(rhs),rhsMax =   4.51464434243373E+00  2.99928041633770E+02
(PID.TID 0000.0001)      cg2d_init_res =   6.83995489516590E-06
(PID.TID 0000.0001)      cg2d_iters(min,last) =      -1      81
(PID.TID 0000.0001)      cg2d_last_res =   9.82770206775385E-12
(PID.TID 0000.0001) // =======================================================
(PID.TID 0000.0001) // Begin MONITOR dynamic field statistics
(PID.TID 0000.0001) // =======================================================
(PID.TID 0000.0001) %MON time_tsnumber                =                   971
(PID.TID 0000.0001) %MON time_secondsf                =   9.7100000000000E+04
(PID.TID 0000.0001) %MON dynstat_eta_max              =   5.7958561600348E+00
(PID.TID 0000.0001) %MON dynstat_eta_min              =  -1.4198561751890E+01
(PID.TID 0000.0001) %MON dynstat_eta_mean             =  -2.5075341412947E+00
(PID.TID 0000.0001) %MON dynstat_eta_sd               =   4.9511348395258E+00
(PID.TID 0000.0001) %MON dynstat_eta_del2             =   2.0714848653179E-01
(PID.TID 0000.0001) %MON dynstat_uvel_max             =   4.2311200309655E-03
(PID.TID 0000.0001) %MON dynstat_uvel_min             =  -1.8778992578945E-02
(PID.TID 0000.0001) %MON dynstat_uvel_mean            =  -1.1891857657094E-07
(PID.TID 0000.0001) %MON dynstat_uvel_sd              =   5.5734148736865E-04
(PID.TID 0000.0001) %MON dynstat_uvel_del2            =   8.3643952391843E-07
(PID.TID 0000.0001) %MON dynstat_vvel_max             =   1.5000721920260E-02
(PID.TID 0000.0001) %MON dynstat_vvel_min             =  -6.4685884720959E-03
(PID.TID 0000.0001) %MON dynstat_vvel_mean            =   1.5128491423174E-05
(PID.TID 0000.0001) %MON dynstat_vvel_sd              =   3.5449959625363E-04
(PID.TID 0000.0001) %MON dynstat_vvel_del2            =   7.1781425647029E-07
(PID.TID 0000.0001) %MON dynstat_wvel_max             =   7.3465799887757E-04
(PID.TID 0000.0001) %MON dynstat_wvel_min             =  -7.1932136487220E-04
(PID.TID 0000.0001) %MON dynstat_wvel_mean            =   7.3563264951878E-09
(PID.TID 0000.0001) %MON dynstat_wvel_sd              =   1.7094871640293E-05
(PID.TID 0000.0001) %MON dynstat_wvel_del2            =   7.4862894698533E-08
(PID.TID 0000.0001) %MON dynstat_theta_max            =   1.2000000000000E+00
(PID.TID 0000.0001) %MON dynstat_theta_min            =  -1.0000000000000E+00
(PID.TID 0000.0001) %MON dynstat_theta_mean           =   5.6880157375776E-01
(PID.TID 0000.0001) %MON dynstat_theta_sd             =   8.6842087934690E-01
(PID.TID 0000.0001) %MON dynstat_theta_del2           =   2.2551476995951E-06
(PID.TID 0000.0001) %MON dynstat_salt_max             =   3.4700000000000E+01
(PID.TID 0000.0001) %MON dynstat_salt_min             =   3.4000000000000E+01
(PID.TID 0000.0001) %MON dynstat_salt_mean            =   3.4499134806949E+01
(PID.TID 0000.0001) %MON dynstat_salt_sd              =   2.7630520049262E-01
(PID.TID 0000.0001) %MON dynstat_salt_del2            =   8.8760377471603E-07
(PID.TID 0000.0001) %MON advcfl_uvel_max              =   1.8778992578945E-03
(PID.TID 0000.0001) %MON advcfl_vvel_max              =   1.5000721920260E-03
(PID.TID 0000.0001) %MON advcfl_wvel_max              =   3.6732899943878E-03
(PID.TID 0000.0001) %MON advcfl_W_hf_max              =   3.6732899943878E-03
(PID.TID 0000.0001) %MON pe_b_mean                    =  -8.3091161796047E-01
(PID.TID 0000.0001) %MON ke_max                       =   1.1840558750419E-04
(PID.TID 0000.0001) %MON ke_mean                      =   2.1518078396339E-07
(PID.TID 0000.0001) %MON ke_vol                       =   4.2724853097231E+12
(PID.TID 0000.0001) // =======================================================
(PID.TID 0000.0001) // End MONITOR dynamic field statistics
(PID.TID 0000.0001) // =======================================================
(PID.TID 0000.0001) // =======================================================
(PID.TID 0000.0001) // Begin OBCS MONITOR field statistics
(PID.TID 0000.0001) // =======================================================
(PID.TID 0000.0001) %MON obc_N_vVel_max               =   1.4831096530506E-05
(PID.TID 0000.0001) %MON obc_N_vVel_min               =   1.4831096530506E-05
(PID.TID 0000.0001) %MON obc_N_vVel_mean              =   1.4831096530506E-05
(PID.TID 0000.0001) %MON obc_N_vVel_sd                =  -6.1780052000054E-24
(PID.TID 0000.0001) %MON obc_N_vVel_Int               =   9.7885237101338E+02
(PID.TID 0000.0001) // =======================================================
(PID.TID 0000.0001) // End OBCS MONITOR field statistics
(PID.TID 0000.0001) // =======================================================
 cg2d: Sum(rhs),rhsMax =   4.51466200639685E+00  2.99928131795592E+02
(PID.TID 0000.0001)      cg2d_init_res =   6.87690989537438E-06
(PID.TID 0000.0001)      cg2d_iters(min,last) =      -1      81
(PID.TID 0000.0001)      cg2d_last_res =   9.83311811512434E-12
(PID.TID 0000.0001) // =======================================================
(PID.TID 0000.0001) // Begin MONITOR dynamic field statistics
(PID.TID 0000.0001) // =======================================================
(PID.TID 0000.0001) %MON time_tsnumber                =                   972
(PID.TID 0000.0001) %MON time_secondsf                =   9.7200000000000E+04
(PID.TID 0000.0001) %MON dynstat_eta_max              =   5.7958529768562E+00
(PID.TID 0000.0001) %MON dynstat_eta_min              =  -1.4198583625476E+01
(PID.TID 0000.0001) %MON dynstat_eta_mean             =  -2.5075447060503E+00
(PID.TID 0000.0001) %MON dynstat_eta_sd               =   4.9511386060451E+00
(PID.TID 0000.0001) %MON dynstat_eta_del2             =   2.0714851195871E-01
(PID.TID 0000.0001) %MON dynstat_uvel_max             =   4.2421087824742E-03
(PID.TID 0000.0001) %MON dynstat_uvel_min             =  -1.8825434052967E-02
(PID.TID 0000.0001) %MON dynstat_uvel_mean            =  -1.1883792772920E-07
(PID.TID 0000.0001) %MON dynstat_uvel_sd              =   5.5877747201712E-04
(PID.TID 0000.0001) %MON dynstat_uvel_del2            =   8.3832023868901E-07
(PID.TID 0000.0001) %MON dynstat_vvel_max             =   1.5036403131684E-02
(PID.TID 0000.0001) %MON dynstat_vvel_min             =  -6.4803099350854E-03
(PID.TID 0000.0001) %MON dynstat_vvel_mean            =   1.5178509545139E-05
(PID.TID 0000.0001) %MON dynstat_vvel_sd              =   3.5530678794899E-04
(PID.TID 0000.0001) %MON dynstat_vvel_del2            =   7.1919897784505E-07
(PID.TID 0000.0001) %MON dynstat_wvel_max             =   7.3672280044085E-04
(PID.TID 0000.0001) %MON dynstat_wvel_min             =  -7.2125892270089E-04
(PID.TID 0000.0001) %MON dynstat_wvel_mean            =   7.4007438733925E-09
(PID.TID 0000.0001) %MON dynstat_wvel_sd              =   1.7261860808032E-05
(PID.TID 0000.0001) %MON dynstat_wvel_del2            =   7.5220328200881E-08
(PID.TID 0000.0001) %MON dynstat_theta_max            =   1.2000000000000E+00
(PID.TID 0000.0001) %MON dynstat_theta_min            =  -1.0000000000000E+00
(PID.TID 0000.0001) %MON dynstat_theta_mean           =   5.6880086209195E-01
(PID.TID 0000.0001) %MON dynstat_theta_sd             =   8.6842049336631E-01
(PID.TID 0000.0001) %MON dynstat_theta_del2           =   2.2597069642767E-06
(PID.TID 0000.0001) %MON dynstat_salt_max             =   3.4700000000000E+01
(PID.TID 0000.0001) %MON dynstat_salt_min             =   3.4000000000000E+01
(PID.TID 0000.0001) %MON dynstat_salt_mean            =   3.4499134522274E+01
(PID.TID 0000.0001) %MON dynstat_salt_sd              =   2.7630505230967E-01
(PID.TID 0000.0001) %MON dynstat_salt_del2            =   8.8943624791049E-07
(PID.TID 0000.0001) %MON advcfl_uvel_max              =   1.8825434052967E-03
(PID.TID 0000.0001) %MON advcfl_vvel_max              =   1.5036403131684E-03
(PID.TID 0000.0001) %MON advcfl_wvel_max              =   3.6836140022043E-03
(PID.TID 0000.0001) %MON advcfl_W_hf_max              =   3.6836140022043E-03
(PID.TID 0000.0001) %MON pe_b_mean                    =  -8.3091444733563E-01
(PID.TID 0000.0001) %MON ke_max                       =   1.1912076690875E-04
(PID.TID 0000.0001) %MON ke_mean                      =   2.1625347487246E-07
(PID.TID 0000.0001) %MON ke_vol                       =   4.2724852472007E+12
(PID.TID 0000.0001) // =======================================================
(PID.TID 0000.0001) // End MONITOR dynamic field statistics
(PID.TID 0000.0001) // =======================================================
(PID.TID 0000.0001) // =======================================================
(PID.TID 0000.0001) // Begin OBCS MONITOR field statistics
(PID.TID 0000.0001) // =======================================================
(PID.TID 0000.0001) %MON obc_N_vVel_max               =   1.4877310904351E-05
(PID.TID 0000.0001) %MON obc_N_vVel_min               =   1.4877310904350E-05
(PID.TID 0000.0001) %MON obc_N_vVel_mean              =   1.4877310904350E-05
(PID.TID 0000.0001) %MON obc_N_vVel_sd                =   3.0250100043418E-12
(PID.TID 0000.0001) %MON obc_N_vVel_Int               =   9.8190251968713E+02
(PID.TID 0000.0001) // =======================================================
(PID.TID 0000.0001) // End OBCS MONITOR field statistics
(PID.TID 0000.0001) // =======================================================
 cg2d: Sum(rhs),rhsMax =   4.51467972943002E+00  2.99928222594052E+02
(PID.TID 0000.0001)      cg2d_init_res =   6.91125582296851E-06
(PID.TID 0000.0001)      cg2d_iters(min,last) =      -1      81
(PID.TID 0000.0001)      cg2d_last_res =   9.83833237058522E-12
(PID.TID 0000.0001) // =======================================================
(PID.TID 0000.0001) // Begin MONITOR dynamic field statistics
(PID.TID 0000.0001) // =======================================================
(PID.TID 0000.0001) %MON time_tsnumber                =                   973
(PID.TID 0000.0001) %MON time_secondsf                =   9.7300000000000E+04
(PID.TID 0000.0001) %MON dynstat_eta_max              =   5.7958497518348E+00
(PID.TID 0000.0001) %MON dynstat_eta_min              =  -1.4198605573935E+01
(PID.TID 0000.0001) %MON dynstat_eta_mean             =  -2.5075553089432E+00
(PID.TID 0000.0001) %MON dynstat_eta_sd               =   4.9511423848120E+00
(PID.TID 0000.0001) %MON dynstat_eta_del2             =   2.0714853745306E-01
(PID.TID 0000.0001) %MON dynstat_uvel_max             =   4.2531203307874E-03
(PID.TID 0000.0001) %MON dynstat_uvel_min             =  -1.8871942109559E-02
(PID.TID 0000.0001) %MON dynstat_uvel_mean            =  -1.1874154676645E-07
(PID.TID 0000.0001) %MON dynstat_uvel_sd              =   5.6021689288549E-04
(PID.TID 0000.0001) %MON dynstat_uvel_del2            =   8.4020684562122E-07
(PID.TID 0000.0001) %MON dynstat_vvel_max             =   1.5072136106679E-02
(PID.TID 0000.0001) %MON dynstat_vvel_min             =  -6.4920446591206E-03
(PID.TID 0000.0001) %MON dynstat_vvel_mean            =   1.5227390671900E-05
(PID.TID 0000.0001) %MON dynstat_vvel_sd              =   3.5610883627898E-04
(PID.TID 0000.0001) %MON dynstat_vvel_del2            =   7.2049434916698E-07
(PID.TID 0000.0001) %MON dynstat_wvel_max             =   7.3879171521358E-04
(PID.TID 0000.0001) %MON dynstat_wvel_min             =  -7.2320046832029E-04
(PID.TID 0000.0001) %MON dynstat_wvel_mean            =   7.4414053121304E-09
(PID.TID 0000.0001) %MON dynstat_wvel_sd              =   1.7410778515802E-05
(PID.TID 0000.0001) %MON dynstat_wvel_del2            =   7.5450393249878E-08
(PID.TID 0000.0001) %MON dynstat_theta_max            =   1.2000000000000E+00
(PID.TID 0000.0001) %MON dynstat_theta_min            =  -1.0000000000000E+00
(PID.TID 0000.0001) %MON dynstat_theta_mean           =   5.6880014900433E-01
(PID.TID 0000.0001) %MON dynstat_theta_sd             =   8.6842010659346E-01
(PID.TID 0000.0001) %MON dynstat_theta_del2           =   2.2643451250949E-06
(PID.TID 0000.0001) %MON dynstat_salt_max             =   3.4700000000000E+01
(PID.TID 0000.0001) %MON dynstat_salt_min             =   3.4000000000000E+01
(PID.TID 0000.0001) %MON dynstat_salt_mean            =   3.4499134237026E+01
(PID.TID 0000.0001) %MON dynstat_salt_sd              =   2.7630490381969E-01
(PID.TID 0000.0001) %MON dynstat_salt_del2            =   8.9128932849914E-07
(PID.TID 0000.0001) %MON advcfl_uvel_max              =   1.8871942109559E-03
(PID.TID 0000.0001) %MON advcfl_vvel_max              =   1.5072136106679E-03
(PID.TID 0000.0001) %MON advcfl_wvel_max              =   3.6939585760679E-03
(PID.TID 0000.0001) %MON advcfl_W_hf_max              =   3.6939585760679E-03
(PID.TID 0000.0001) %MON pe_b_mean                    =  -8.3091728492378E-01
(PID.TID 0000.0001) %MON ke_max                       =   1.1983973626468E-04
(PID.TID 0000.0001) %MON ke_mean                      =   2.1732887918591E-07
(PID.TID 0000.0001) %MON ke_vol                       =   4.2724851844461E+12
(PID.TID 0000.0001) // =======================================================
(PID.TID 0000.0001) // End MONITOR dynamic field statistics
(PID.TID 0000.0001) // =======================================================
(PID.TID 0000.0001) // =======================================================
(PID.TID 0000.0001) // Begin OBCS MONITOR field statistics
(PID.TID 0000.0001) // =======================================================
(PID.TID 0000.0001) %MON obc_N_vVel_max               =   1.4922674684551E-05
(PID.TID 0000.0001) %MON obc_N_vVel_min               =   1.4922674684551E-05
(PID.TID 0000.0001) %MON obc_N_vVel_mean              =   1.4922674684551E-05
(PID.TID 0000.0001) %MON obc_N_vVel_sd                =   3.9643954947139E-12
(PID.TID 0000.0001) %MON obc_N_vVel_Int               =   9.8489652918034E+02
(PID.TID 0000.0001) // =======================================================
(PID.TID 0000.0001) // End OBCS MONITOR field statistics
(PID.TID 0000.0001) // =======================================================
 cg2d: Sum(rhs),rhsMax =   4.51469751076253E+00  2.99928313924329E+02
(PID.TID 0000.0001)      cg2d_init_res =   6.94278029487212E-06
(PID.TID 0000.0001)      cg2d_iters(min,last) =      -1      81
(PID.TID 0000.0001)      cg2d_last_res =   9.84346555926168E-12
(PID.TID 0000.0001) // =======================================================
(PID.TID 0000.0001) // Begin MONITOR dynamic field statistics
(PID.TID 0000.0001) // =======================================================
(PID.TID 0000.0001) %MON time_tsnumber                =                   974
(PID.TID 0000.0001) %MON time_secondsf                =   9.7400000000000E+04
(PID.TID 0000.0001) %MON dynstat_eta_max              =   5.7958464878545E+00
(PID.TID 0000.0001) %MON dynstat_eta_min              =  -1.4198627594671E+01
(PID.TID 0000.0001) %MON dynstat_eta_mean             =  -2.5075659486692E+00
(PID.TID 0000.0001) %MON dynstat_eta_sd               =   4.9511461751105E+00
(PID.TID 0000.0001) %MON dynstat_eta_del2             =   2.0714856301384E-01
(PID.TID 0000.0001) %MON dynstat_uvel_max             =   4.2641547251456E-03
(PID.TID 0000.0001) %MON dynstat_uvel_min             =  -1.8918516638980E-02
(PID.TID 0000.0001) %MON dynstat_uvel_mean            =  -1.1862981686157E-07
(PID.TID 0000.0001) %MON dynstat_uvel_sd              =   5.6165975693935E-04
(PID.TID 0000.0001) %MON dynstat_uvel_del2            =   8.4209935635536E-07
(PID.TID 0000.0001) %MON dynstat_vvel_max             =   1.5107920743239E-02
(PID.TID 0000.0001) %MON dynstat_vvel_min             =  -6.5037926864129E-03
(PID.TID 0000.0001) %MON dynstat_vvel_mean            =   1.5274794935331E-05
(PID.TID 0000.0001) %MON dynstat_vvel_sd              =   3.5690400996653E-04
(PID.TID 0000.0001) %MON dynstat_vvel_del2            =   7.2170310802673E-07
(PID.TID 0000.0001) %MON dynstat_wvel_max             =   7.4086474378370E-04
(PID.TID 0000.0001) %MON dynstat_wvel_min             =  -7.2514599785965E-04
(PID.TID 0000.0001) %MON dynstat_wvel_mean            =   7.4779877349368E-09
(PID.TID 0000.0001) %MON dynstat_wvel_sd              =   1.7538541640984E-05
(PID.TID 0000.0001) %MON dynstat_wvel_del2            =   7.5555991712895E-08
(PID.TID 0000.0001) %MON dynstat_theta_max            =   1.2000000000000E+00
(PID.TID 0000.0001) %MON dynstat_theta_min            =  -1.0000000000000E+00
(PID.TID 0000.0001) %MON dynstat_theta_mean           =   5.6879943449364E-01
(PID.TID 0000.0001) %MON dynstat_theta_sd             =   8.6841971902935E-01
(PID.TID 0000.0001) %MON dynstat_theta_del2           =   2.2690644777024E-06
(PID.TID 0000.0001) %MON dynstat_salt_max             =   3.4700000000000E+01
(PID.TID 0000.0001) %MON dynstat_salt_min             =   3.4000000000000E+01
(PID.TID 0000.0001) %MON dynstat_salt_mean            =   3.4499133951204E+01
(PID.TID 0000.0001) %MON dynstat_salt_sd              =   2.7630475502280E-01
(PID.TID 0000.0001) %MON dynstat_salt_del2            =   8.9316372739667E-07
(PID.TID 0000.0001) %MON advcfl_uvel_max              =   1.8918516638980E-03
(PID.TID 0000.0001) %MON advcfl_vvel_max              =   1.5107920743239E-03
(PID.TID 0000.0001) %MON advcfl_wvel_max              =   3.7043237189185E-03
(PID.TID 0000.0001) %MON advcfl_W_hf_max              =   3.7043237189185E-03
(PID.TID 0000.0001) %MON pe_b_mean                    =  -8.3092013031302E-01
(PID.TID 0000.0001) %MON ke_max                       =   1.2056251149904E-04
(PID.TID 0000.0001) %MON ke_mean                      =   2.1840637974123E-07
(PID.TID 0000.0001) %MON ke_vol                       =   4.2724851214649E+12
(PID.TID 0000.0001) // =======================================================
(PID.TID 0000.0001) // End MONITOR dynamic field statistics
(PID.TID 0000.0001) // =======================================================
(PID.TID 0000.0001) // =======================================================
(PID.TID 0000.0001) // Begin OBCS MONITOR field statistics
(PID.TID 0000.0001) // =======================================================
(PID.TID 0000.0001) %MON obc_N_vVel_max               =   1.4966876157298E-05
(PID.TID 0000.0001) %MON obc_N_vVel_min               =   1.4966876157297E-05
(PID.TID 0000.0001) %MON obc_N_vVel_mean              =   1.4966876157297E-05
(PID.TID 0000.0001) %MON obc_N_vVel_sd                =   3.8452377623998E-12
(PID.TID 0000.0001) %MON obc_N_vVel_Int               =   9.8781382638163E+02
(PID.TID 0000.0001) // =======================================================
(PID.TID 0000.0001) // End OBCS MONITOR field statistics
(PID.TID 0000.0001) // =======================================================
 cg2d: Sum(rhs),rhsMax =   4.51471534909677E+00  2.99928405675773E+02
(PID.TID 0000.0001)      cg2d_init_res =   6.97131392708342E-06
(PID.TID 0000.0001)      cg2d_iters(min,last) =      -1      81
(PID.TID 0000.0001)      cg2d_last_res =   9.84853461395327E-12
(PID.TID 0000.0001) // =======================================================
(PID.TID 0000.0001) // Begin MONITOR dynamic field statistics
(PID.TID 0000.0001) // =======================================================
(PID.TID 0000.0001) %MON time_tsnumber                =                   975
(PID.TID 0000.0001) %MON time_secondsf                =   9.7500000000000E+04
(PID.TID 0000.0001) %MON dynstat_eta_max              =   5.7958431883998E+00
(PID.TID 0000.0001) %MON dynstat_eta_min              =  -1.4198649684486E+01
(PID.TID 0000.0001) %MON dynstat_eta_mean             =  -2.5075766235825E+00
(PID.TID 0000.0001) %MON dynstat_eta_sd               =   4.9511499761161E+00
(PID.TID 0000.0001) %MON dynstat_eta_del2             =   2.0714858864005E-01
(PID.TID 0000.0001) %MON dynstat_uvel_max             =   4.2752120134892E-03
(PID.TID 0000.0001) %MON dynstat_uvel_min             =  -1.8965157532627E-02
(PID.TID 0000.0001) %MON dynstat_uvel_mean            =  -1.1850322862285E-07
(PID.TID 0000.0001) %MON dynstat_uvel_sd              =   5.6310606842430E-04
(PID.TID 0000.0001) %MON dynstat_uvel_del2            =   8.4399777167953E-07
(PID.TID 0000.0001) %MON dynstat_vvel_max             =   1.5143756939231E-02
(PID.TID 0000.0001) %MON dynstat_vvel_min             =  -6.5155540582058E-03
(PID.TID 0000.0001) %MON dynstat_vvel_mean            =   1.5320387620709E-05
(PID.TID 0000.0001) %MON dynstat_vvel_sd              =   3.5769084797110E-04
(PID.TID 0000.0001) %MON dynstat_vvel_del2            =   7.2283082744946E-07
(PID.TID 0000.0001) %MON dynstat_wvel_max             =   7.4294188668201E-04
(PID.TID 0000.0001) %MON dynstat_wvel_min             =  -7.2709550750141E-04
(PID.TID 0000.0001) %MON dynstat_wvel_mean            =   7.5101868605236E-09
(PID.TID 0000.0001) %MON dynstat_wvel_sd              =   1.7642899044229E-05
(PID.TID 0000.0001) %MON dynstat_wvel_del2            =   7.5545892666560E-08
(PID.TID 0000.0001) %MON dynstat_theta_max            =   1.2000000000000E+00
(PID.TID 0000.0001) %MON dynstat_theta_min            =  -1.0000000000000E+00
(PID.TID 0000.0001) %MON dynstat_theta_mean           =   5.6879871855790E-01
(PID.TID 0000.0001) %MON dynstat_theta_sd             =   8.6841933067132E-01
(PID.TID 0000.0001) %MON dynstat_theta_del2           =   2.2738645768733E-06
(PID.TID 0000.0001) %MON dynstat_salt_max             =   3.4700000000000E+01
(PID.TID 0000.0001) %MON dynstat_salt_min             =   3.4000000000000E+01
(PID.TID 0000.0001) %MON dynstat_salt_mean            =   3.4499133664808E+01
(PID.TID 0000.0001) %MON dynstat_salt_sd              =   2.7630460591806E-01
(PID.TID 0000.0001) %MON dynstat_salt_del2            =   8.9505937486899E-07
(PID.TID 0000.0001) %MON advcfl_uvel_max              =   1.8965157532627E-03
(PID.TID 0000.0001) %MON advcfl_vvel_max              =   1.5143756939231E-03
(PID.TID 0000.0001) %MON advcfl_wvel_max              =   3.7147094334100E-03
(PID.TID 0000.0001) %MON advcfl_W_hf_max              =   3.7147094334100E-03
(PID.TID 0000.0001) %MON pe_b_mean                    =  -8.3092298300623E-01
(PID.TID 0000.0001) %MON ke_max                       =   1.2128910861096E-04
(PID.TID 0000.0001) %MON ke_mean                      =   2.1948544923609E-07
(PID.TID 0000.0001) %MON ke_vol                       =   4.2724850582649E+12
(PID.TID 0000.0001) // =======================================================
(PID.TID 0000.0001) // End MONITOR dynamic field statistics
(PID.TID 0000.0001) // =======================================================
(PID.TID 0000.0001) // =======================================================
(PID.TID 0000.0001) // Begin OBCS MONITOR field statistics
(PID.TID 0000.0001) // =======================================================
(PID.TID 0000.0001) %MON obc_N_vVel_max               =   1.5009607141644E-05
(PID.TID 0000.0001) %MON obc_N_vVel_min               =   1.5009607141643E-05
(PID.TID 0000.0001) %MON obc_N_vVel_mean              =   1.5009607141644E-05
(PID.TID 0000.0001) %MON obc_N_vVel_sd                =  -3.8515597272000E-24
(PID.TID 0000.0001) %MON obc_N_vVel_Int               =   9.9063407134847E+02
(PID.TID 0000.0001) // =======================================================
(PID.TID 0000.0001) // End OBCS MONITOR field statistics
(PID.TID 0000.0001) // =======================================================
 cg2d: Sum(rhs),rhsMax =   4.51473324260894E+00  2.99928497732503E+02
(PID.TID 0000.0001)      cg2d_init_res =   6.99678173886959E-06
(PID.TID 0000.0001)      cg2d_iters(min,last) =      -1      81
(PID.TID 0000.0001)      cg2d_last_res =   9.85351540453091E-12
(PID.TID 0000.0001) // =======================================================
(PID.TID 0000.0001) // Begin MONITOR dynamic field statistics
(PID.TID 0000.0001) // =======================================================
(PID.TID 0000.0001) %MON time_tsnumber                =                   976
(PID.TID 0000.0001) %MON time_secondsf                =   9.7600000000000E+04
(PID.TID 0000.0001) %MON dynstat_eta_max              =   5.7958398575179E+00
(PID.TID 0000.0001) %MON dynstat_eta_min              =  -1.4198671839607E+01
(PID.TID 0000.0001) %MON dynstat_eta_mean             =  -2.5075873317013E+00
(PID.TID 0000.0001) %MON dynstat_eta_sd               =   4.9511537869002E+00
(PID.TID 0000.0001) %MON dynstat_eta_del2             =   2.0714861433055E-01
(PID.TID 0000.0001) %MON dynstat_uvel_max             =   4.2862922426004E-03
(PID.TID 0000.0001) %MON dynstat_uvel_min             =  -1.9011864683051E-02
(PID.TID 0000.0001) %MON dynstat_uvel_mean            =  -1.1836238777632E-07
(PID.TID 0000.0001) %MON dynstat_uvel_sd              =   5.6455582860513E-04
(PID.TID 0000.0001) %MON dynstat_uvel_del2            =   8.4590208174369E-07
(PID.TID 0000.0001) %MON dynstat_vvel_max             =   1.5179644592933E-02
(PID.TID 0000.0001) %MON dynstat_vvel_min             =  -6.5273288145660E-03
(PID.TID 0000.0001) %MON dynstat_vvel_mean            =   1.5363841904541E-05
(PID.TID 0000.0001) %MON dynstat_vvel_sd              =   3.5846819077549E-04
(PID.TID 0000.0001) %MON dynstat_vvel_del2            =   7.2388550747352E-07
(PID.TID 0000.0001) %MON dynstat_wvel_max             =   7.4502314438044E-04
(PID.TID 0000.0001) %MON dynstat_wvel_min             =  -7.2904899337400E-04
(PID.TID 0000.0001) %MON dynstat_wvel_mean            =   7.5377412195523E-09
(PID.TID 0000.0001) %MON dynstat_wvel_sd              =   1.7722359544564E-05
(PID.TID 0000.0001) %MON dynstat_wvel_del2            =   7.5433468120500E-08
(PID.TID 0000.0001) %MON dynstat_theta_max            =   1.2000000000000E+00
(PID.TID 0000.0001) %MON dynstat_theta_min            =  -1.0000000000000E+00
(PID.TID 0000.0001) %MON dynstat_theta_mean           =   5.6879800119442E-01
(PID.TID 0000.0001) %MON dynstat_theta_sd             =   8.6841894151782E-01
(PID.TID 0000.0001) %MON dynstat_theta_del2           =   2.2787424998186E-06
(PID.TID 0000.0001) %MON dynstat_salt_max             =   3.4700000000000E+01
(PID.TID 0000.0001) %MON dynstat_salt_min             =   3.4000000000000E+01
(PID.TID 0000.0001) %MON dynstat_salt_mean            =   3.4499133377836E+01
(PID.TID 0000.0001) %MON dynstat_salt_sd              =   2.7630445650490E-01
(PID.TID 0000.0001) %MON dynstat_salt_del2            =   8.9697560331030E-07
(PID.TID 0000.0001) %MON advcfl_uvel_max              =   1.9011864683051E-03
(PID.TID 0000.0001) %MON advcfl_vvel_max              =   1.5179644592933E-03
(PID.TID 0000.0001) %MON advcfl_wvel_max              =   3.7251157219022E-03
(PID.TID 0000.0001) %MON advcfl_W_hf_max              =   3.7251157219022E-03
(PID.TID 0000.0001) %MON pe_b_mean                    =  -8.3092584242339E-01
(PID.TID 0000.0001) %MON ke_max                       =   1.2201954367141E-04
(PID.TID 0000.0001) %MON ke_mean                      =   2.2056566251128E-07
(PID.TID 0000.0001) %MON ke_vol                       =   4.2724849948559E+12
(PID.TID 0000.0001) // =======================================================
(PID.TID 0000.0001) // End MONITOR dynamic field statistics
(PID.TID 0000.0001) // =======================================================
(PID.TID 0000.0001) // =======================================================
(PID.TID 0000.0001) // Begin OBCS MONITOR field statistics
(PID.TID 0000.0001) // =======================================================
(PID.TID 0000.0001) %MON obc_N_vVel_max               =   1.5050564531543E-05
(PID.TID 0000.0001) %MON obc_N_vVel_min               =   1.5050564531542E-05
(PID.TID 0000.0001) %MON obc_N_vVel_mean              =   1.5050564531543E-05
(PID.TID 0000.0001) %MON obc_N_vVel_sd                =  -1.5587184667796E-23
(PID.TID 0000.0001) %MON obc_N_vVel_Int               =   9.9333725908182E+02
(PID.TID 0000.0001) // =======================================================
(PID.TID 0000.0001) // End OBCS MONITOR field statistics
(PID.TID 0000.0001) // =======================================================
 cg2d: Sum(rhs),rhsMax =   4.51475118895212E+00  2.99928589974396E+02
(PID.TID 0000.0001)      cg2d_init_res =   7.01911312347884E-06
(PID.TID 0000.0001)      cg2d_iters(min,last) =      -1      81
(PID.TID 0000.0001)      cg2d_last_res =   9.85835867626420E-12
(PID.TID 0000.0001) // =======================================================
(PID.TID 0000.0001) // Begin MONITOR dynamic field statistics
(PID.TID 0000.0001) // =======================================================
(PID.TID 0000.0001) %MON time_tsnumber                =                   977
(PID.TID 0000.0001) %MON time_secondsf                =   9.7700000000000E+04
(PID.TID 0000.0001) %MON dynstat_eta_max              =   5.7958364998237E+00
(PID.TID 0000.0001) %MON dynstat_eta_min              =  -1.4198694055699E+01
(PID.TID 0000.0001) %MON dynstat_eta_mean             =  -2.5075980707179E+00
(PID.TID 0000.0001) %MON dynstat_eta_sd               =   4.9511576064360E+00
(PID.TID 0000.0001) %MON dynstat_eta_del2             =   2.0714864008414E-01
(PID.TID 0000.0001) %MON dynstat_uvel_max             =   4.2973954577370E-03
(PID.TID 0000.0001) %MON dynstat_uvel_min             =  -1.9058637984109E-02
(PID.TID 0000.0001) %MON dynstat_uvel_mean            =  -1.1820802125139E-07
(PID.TID 0000.0001) %MON dynstat_uvel_sd              =   5.6600903557294E-04
(PID.TID 0000.0001) %MON dynstat_uvel_del2            =   8.4781226606229E-07
(PID.TID 0000.0001) %MON dynstat_vvel_max             =   1.5218303378954E-02
(PID.TID 0000.0001) %MON dynstat_vvel_min             =  -6.5391169941407E-03
(PID.TID 0000.0001) %MON dynstat_vvel_mean            =   1.5404841608240E-05
(PID.TID 0000.0001) %MON dynstat_vvel_sd              =   3.5923520099714E-04
(PID.TID 0000.0001) %MON dynstat_vvel_del2            =   7.2487705622101E-07
(PID.TID 0000.0001) %MON dynstat_wvel_max             =   7.4710851730424E-04
(PID.TID 0000.0001) %MON dynstat_wvel_min             =  -7.3100645177306E-04
(PID.TID 0000.0001) %MON dynstat_wvel_mean            =   7.5604038184348E-09
(PID.TID 0000.0001) %MON dynstat_wvel_sd              =   1.7776096765742E-05
(PID.TID 0000.0001) %MON dynstat_wvel_del2            =   7.5235173970957E-08
(PID.TID 0000.0001) %MON dynstat_theta_max            =   1.2000000000000E+00
(PID.TID 0000.0001) %MON dynstat_theta_min            =  -1.0000000000000E+00
(PID.TID 0000.0001) %MON dynstat_theta_mean           =   5.6879728239983E-01
(PID.TID 0000.0001) %MON dynstat_theta_sd             =   8.6841855157258E-01
(PID.TID 0000.0001) %MON dynstat_theta_del2           =   2.2836932478384E-06
(PID.TID 0000.0001) %MON dynstat_salt_max             =   3.4700000000000E+01
(PID.TID 0000.0001) %MON dynstat_salt_min             =   3.4000000000000E+01
(PID.TID 0000.0001) %MON dynstat_salt_mean            =   3.4499133090288E+01
(PID.TID 0000.0001) %MON dynstat_salt_sd              =   2.7630430678452E-01
(PID.TID 0000.0001) %MON dynstat_salt_del2            =   8.9891121549794E-07
(PID.TID 0000.0001) %MON advcfl_uvel_max              =   1.9058637984109E-03
(PID.TID 0000.0001) %MON advcfl_vvel_max              =   1.5218303378954E-03
(PID.TID 0000.0001) %MON advcfl_wvel_max              =   3.7355425865212E-03
(PID.TID 0000.0001) %MON advcfl_W_hf_max              =   3.7355425865212E-03
(PID.TID 0000.0001) %MON pe_b_mean                    =  -8.3092870790432E-01
(PID.TID 0000.0001) %MON ke_max                       =   1.2275383282671E-04
(PID.TID 0000.0001) %MON ke_mean                      =   2.2164670516475E-07
(PID.TID 0000.0001) %MON ke_vol                       =   4.2724849312497E+12
(PID.TID 0000.0001) // =======================================================
(PID.TID 0000.0001) // End MONITOR dynamic field statistics
(PID.TID 0000.0001) // =======================================================
(PID.TID 0000.0001) // =======================================================
(PID.TID 0000.0001) // Begin OBCS MONITOR field statistics
(PID.TID 0000.0001) // =======================================================
(PID.TID 0000.0001) %MON obc_N_vVel_max               =   1.5089454652241E-05
(PID.TID 0000.0001) %MON obc_N_vVel_min               =   1.5089454652240E-05
(PID.TID 0000.0001) %MON obc_N_vVel_mean              =   1.5089454652241E-05
(PID.TID 0000.0001) %MON obc_N_vVel_sd                =  -6.3331015648591E-24
(PID.TID 0000.0001) %MON obc_N_vVel_Int               =   9.9590400704789E+02
(PID.TID 0000.0001) // =======================================================
(PID.TID 0000.0001) // End OBCS MONITOR field statistics
(PID.TID 0000.0001) // =======================================================
 cg2d: Sum(rhs),rhsMax =   4.51476918526607E+00  2.99928682277808E+02
(PID.TID 0000.0001)      cg2d_init_res =   7.03827407154030E-06
(PID.TID 0000.0001)      cg2d_iters(min,last) =      -1      81
(PID.TID 0000.0001)      cg2d_last_res =   9.86298468587730E-12
(PID.TID 0000.0001) // =======================================================
(PID.TID 0000.0001) // Begin MONITOR dynamic field statistics
(PID.TID 0000.0001) // =======================================================
(PID.TID 0000.0001) %MON time_tsnumber                =                   978
(PID.TID 0000.0001) %MON time_secondsf                =   9.7800000000000E+04
(PID.TID 0000.0001) %MON dynstat_eta_max              =   5.7958331204565E+00
(PID.TID 0000.0001) %MON dynstat_eta_min              =  -1.4198716327874E+01
(PID.TID 0000.0001) %MON dynstat_eta_mean             =  -2.5076088380098E+00
(PID.TID 0000.0001) %MON dynstat_eta_sd               =   4.9511614336037E+00
(PID.TID 0000.0001) %MON dynstat_eta_del2             =   2.0714866589945E-01
(PID.TID 0000.0001) %MON dynstat_uvel_max             =   4.3085217026189E-03
(PID.TID 0000.0001) %MON dynstat_uvel_min             =  -1.9105477331085E-02
(PID.TID 0000.0001) %MON dynstat_uvel_mean            =  -1.1804097280994E-07
(PID.TID 0000.0001) %MON dynstat_uvel_sd              =   5.6746568412189E-04
(PID.TID 0000.0001) %MON dynstat_uvel_del2            =   8.4972829388808E-07
(PID.TID 0000.0001) %MON dynstat_vvel_max             =   1.5257195904850E-02
(PID.TID 0000.0001) %MON dynstat_vvel_min             =  -6.5509186339012E-03
(PID.TID 0000.0001) %MON dynstat_vvel_mean            =   1.5443083659401E-05
(PID.TID 0000.0001) %MON dynstat_vvel_sd              =   3.5999137428246E-04
(PID.TID 0000.0001) %MON dynstat_vvel_del2            =   7.2581671165147E-07
(PID.TID 0000.0001) %MON dynstat_wvel_max             =   7.4919800579915E-04
(PID.TID 0000.0001) %MON dynstat_wvel_min             =  -7.3296787893632E-04
(PID.TID 0000.0001) %MON dynstat_wvel_mean            =   7.5779678983027E-09
(PID.TID 0000.0001) %MON dynstat_wvel_sd              =   1.7803845071407E-05
(PID.TID 0000.0001) %MON dynstat_wvel_del2            =   7.4968904654446E-08
(PID.TID 0000.0001) %MON dynstat_theta_max            =   1.2000000000000E+00
(PID.TID 0000.0001) %MON dynstat_theta_min            =  -1.0000000000000E+00
(PID.TID 0000.0001) %MON dynstat_theta_mean           =   5.6879656216986E-01
(PID.TID 0000.0001) %MON dynstat_theta_sd             =   8.6841816084344E-01
(PID.TID 0000.0001) %MON dynstat_theta_del2           =   2.2887102383936E-06
(PID.TID 0000.0001) %MON dynstat_salt_max             =   3.4700000000000E+01
(PID.TID 0000.0001) %MON dynstat_salt_min             =   3.4000000000000E+01
(PID.TID 0000.0001) %MON dynstat_salt_mean            =   3.4499132802162E+01
(PID.TID 0000.0001) %MON dynstat_salt_sd              =   2.7630415675934E-01
(PID.TID 0000.0001) %MON dynstat_salt_del2            =   9.0086461578000E-07
(PID.TID 0000.0001) %MON advcfl_uvel_max              =   1.9105477331085E-03
(PID.TID 0000.0001) %MON advcfl_vvel_max              =   1.5257195904850E-03
(PID.TID 0000.0001) %MON advcfl_wvel_max              =   3.7459900289957E-03
(PID.TID 0000.0001) %MON advcfl_W_hf_max              =   3.7459900289957E-03
(PID.TID 0000.0001) %MON pe_b_mean                    =  -8.3093157871244E-01
(PID.TID 0000.0001) %MON ke_max                       =   1.2349199229950E-04
(PID.TID 0000.0001) %MON ke_mean                      =   2.2272837876235E-07
(PID.TID 0000.0001) %MON ke_vol                       =   4.2724848674599E+12
(PID.TID 0000.0001) // =======================================================
(PID.TID 0000.0001) // End MONITOR dynamic field statistics
(PID.TID 0000.0001) // =======================================================
(PID.TID 0000.0001) // =======================================================
(PID.TID 0000.0001) // Begin OBCS MONITOR field statistics
(PID.TID 0000.0001) // =======================================================
(PID.TID 0000.0001) %MON obc_N_vVel_max               =   1.5125993623450E-05
(PID.TID 0000.0001) %MON obc_N_vVel_min               =   1.5125993623450E-05
(PID.TID 0000.0001) %MON obc_N_vVel_mean              =   1.5125993623450E-05
(PID.TID 0000.0001) %MON obc_N_vVel_sd                =  -1.1425432210889E-23
(PID.TID 0000.0001) %MON obc_N_vVel_Int               =   9.9831557914772E+02
(PID.TID 0000.0001) // =======================================================
(PID.TID 0000.0001) // End OBCS MONITOR field statistics
(PID.TID 0000.0001) // =======================================================
 cg2d: Sum(rhs),rhsMax =   4.51478722819029E+00  2.99928774516351E+02
(PID.TID 0000.0001)      cg2d_init_res =   7.05424267547374E-06
(PID.TID 0000.0001)      cg2d_iters(min,last) =      -1      81
(PID.TID 0000.0001)      cg2d_last_res =   9.86728598847470E-12
(PID.TID 0000.0001) // =======================================================
(PID.TID 0000.0001) // Begin MONITOR dynamic field statistics
(PID.TID 0000.0001) // =======================================================
(PID.TID 0000.0001) %MON time_tsnumber                =                   979
(PID.TID 0000.0001) %MON time_secondsf                =   9.7900000000000E+04
(PID.TID 0000.0001) %MON dynstat_eta_max              =   5.7958297250660E+00
(PID.TID 0000.0001) %MON dynstat_eta_min              =  -1.4198738650737E+01
(PID.TID 0000.0001) %MON dynstat_eta_mean             =  -2.5076196306540E+00
(PID.TID 0000.0001) %MON dynstat_eta_sd               =   4.9511652671983E+00
(PID.TID 0000.0001) %MON dynstat_eta_del2             =   2.0714869177508E-01
(PID.TID 0000.0001) %MON dynstat_uvel_max             =   4.3196710192035E-03
(PID.TID 0000.0001) %MON dynstat_uvel_min             =  -1.9152382620717E-02
(PID.TID 0000.0001) %MON dynstat_uvel_mean            =  -1.1786219977272E-07
(PID.TID 0000.0001) %MON dynstat_uvel_sd              =   5.6892576570307E-04
(PID.TID 0000.0001) %MON dynstat_uvel_del2            =   8.5165012479593E-07
(PID.TID 0000.0001) %MON dynstat_vvel_max             =   1.5296150537378E-02
(PID.TID 0000.0001) %MON dynstat_vvel_min             =  -6.5627337687459E-03
(PID.TID 0000.0001) %MON dynstat_vvel_mean            =   1.5478280714079E-05
(PID.TID 0000.0001) %MON dynstat_vvel_sd              =   3.6073654180096E-04
(PID.TID 0000.0001) %MON dynstat_vvel_del2            =   7.2671645924752E-07
(PID.TID 0000.0001) %MON dynstat_wvel_max             =   7.5129161017122E-04
(PID.TID 0000.0001) %MON dynstat_wvel_min             =  -7.3493327131035E-04
(PID.TID 0000.0001) %MON dynstat_wvel_mean            =   7.5902623585641E-09
(PID.TID 0000.0001) %MON dynstat_wvel_sd              =   1.7805800223257E-05
(PID.TID 0000.0001) %MON dynstat_wvel_del2            =   7.4652371378857E-08
(PID.TID 0000.0001) %MON dynstat_theta_max            =   1.2000000000000E+00
(PID.TID 0000.0001) %MON dynstat_theta_min            =  -1.0000000000000E+00
(PID.TID 0000.0001) %MON dynstat_theta_mean           =   5.6879584049961E-01
(PID.TID 0000.0001) %MON dynstat_theta_sd             =   8.6841776934117E-01
(PID.TID 0000.0001) %MON dynstat_theta_del2           =   2.2937857496317E-06
(PID.TID 0000.0001) %MON dynstat_salt_max             =   3.4700000000000E+01
(PID.TID 0000.0001) %MON dynstat_salt_min             =   3.4000000000000E+01
(PID.TID 0000.0001) %MON dynstat_salt_mean            =   3.4499132513456E+01
(PID.TID 0000.0001) %MON dynstat_salt_sd              =   2.7630400643275E-01
(PID.TID 0000.0001) %MON dynstat_salt_del2            =   9.0283392199427E-07
(PID.TID 0000.0001) %MON advcfl_uvel_max              =   1.9152382620717E-03
(PID.TID 0000.0001) %MON advcfl_vvel_max              =   1.5296150537378E-03
(PID.TID 0000.0001) %MON advcfl_wvel_max              =   3.7564580508561E-03
(PID.TID 0000.0001) %MON advcfl_W_hf_max              =   3.7564580508561E-03
(PID.TID 0000.0001) %MON pe_b_mean                    =  -8.3093445403879E-01
(PID.TID 0000.0001) %MON ke_max                       =   1.2423403838881E-04
(PID.TID 0000.0001) %MON ke_mean                      =   2.2381060306877E-07
(PID.TID 0000.0001) %MON ke_vol                       =   4.2724848035022E+12
(PID.TID 0000.0001) // =======================================================
(PID.TID 0000.0001) // End MONITOR dynamic field statistics
(PID.TID 0000.0001) // =======================================================
(PID.TID 0000.0001) // =======================================================
(PID.TID 0000.0001) // Begin OBCS MONITOR field statistics
(PID.TID 0000.0001) // =======================================================
(PID.TID 0000.0001) %MON obc_N_vVel_max               =   1.5159910588042E-05
(PID.TID 0000.0001) %MON obc_N_vVel_min               =   1.5159910588042E-05
(PID.TID 0000.0001) %MON obc_N_vVel_mean              =   1.5159910588042E-05
(PID.TID 0000.0001) %MON obc_N_vVel_sd                =  -1.4346413748967E-23
(PID.TID 0000.0001) %MON obc_N_vVel_Int               =   1.0005540988108E+03
(PID.TID 0000.0001) // =======================================================
(PID.TID 0000.0001) // End OBCS MONITOR field statistics
(PID.TID 0000.0001) // =======================================================
 cg2d: Sum(rhs),rhsMax =   4.51480531387296E+00  2.99928866562356E+02
(PID.TID 0000.0001)      cg2d_init_res =   7.06698370466977E-06
(PID.TID 0000.0001)      cg2d_iters(min,last) =      -1      81
(PID.TID 0000.0001)      cg2d_last_res =   9.87108322973671E-12
(PID.TID 0000.0001) // =======================================================
(PID.TID 0000.0001) // Begin MONITOR dynamic field statistics
(PID.TID 0000.0001) // =======================================================
(PID.TID 0000.0001) %MON time_tsnumber                =                   980
(PID.TID 0000.0001) %MON time_secondsf                =   9.8000000000000E+04
(PID.TID 0000.0001) %MON dynstat_eta_max              =   5.7958263197642E+00
(PID.TID 0000.0001) %MON dynstat_eta_min              =  -1.4198761018417E+01
(PID.TID 0000.0001) %MON dynstat_eta_mean             =  -2.5076304454437E+00
(PID.TID 0000.0001) %MON dynstat_eta_sd               =   4.9511691059368E+00
(PID.TID 0000.0001) %MON dynstat_eta_del2             =   2.0714871770948E-01
(PID.TID 0000.0001) %MON dynstat_uvel_max             =   4.3308434476508E-03
(PID.TID 0000.0001) %MON dynstat_uvel_min             =  -1.9199353751393E-02
(PID.TID 0000.0001) %MON dynstat_uvel_mean            =  -1.1767277375506E-07
(PID.TID 0000.0001) %MON dynstat_uvel_sd              =   5.7038926845291E-04
(PID.TID 0000.0001) %MON dynstat_uvel_del2            =   8.5357770944426E-07
(PID.TID 0000.0001) %MON dynstat_vvel_max             =   1.5335167137803E-02
(PID.TID 0000.0001) %MON dynstat_vvel_min             =  -6.5745624314868E-03
(PID.TID 0000.0001) %MON dynstat_vvel_mean            =   1.5510163695737E-05
(PID.TID 0000.0001) %MON dynstat_vvel_sd              =   3.6147086579935E-04
(PID.TID 0000.0001) %MON dynstat_vvel_del2            =   7.2758849815895E-07
(PID.TID 0000.0001) %MON dynstat_wvel_max             =   7.5338933065307E-04
(PID.TID 0000.0001) %MON dynstat_wvel_min             =  -7.3690262542709E-04
(PID.TID 0000.0001) %MON dynstat_wvel_mean            =   7.5971526943649E-09
(PID.TID 0000.0001) %MON dynstat_wvel_sd              =   1.7782536332637E-05
(PID.TID 0000.0001) %MON dynstat_wvel_del2            =   7.4301662094851E-08
(PID.TID 0000.0001) %MON dynstat_theta_max            =   1.2000000000000E+00
(PID.TID 0000.0001) %MON dynstat_theta_min            =  -1.0000000000000E+00
(PID.TID 0000.0001) %MON dynstat_theta_mean           =   5.6879511738362E-01
(PID.TID 0000.0001) %MON dynstat_theta_sd             =   8.6841737707272E-01
(PID.TID 0000.0001) %MON dynstat_theta_del2           =   2.2989113217217E-06
(PID.TID 0000.0001) %MON dynstat_salt_max             =   3.4700000000000E+01
(PID.TID 0000.0001) %MON dynstat_salt_min             =   3.4000000000000E+01
(PID.TID 0000.0001) %MON dynstat_salt_mean            =   3.4499132224169E+01
(PID.TID 0000.0001) %MON dynstat_salt_sd              =   2.7630385580679E-01
(PID.TID 0000.0001) %MON dynstat_salt_del2            =   9.0481704823134E-07
(PID.TID 0000.0001) %MON advcfl_uvel_max              =   1.9199353751393E-03
(PID.TID 0000.0001) %MON advcfl_vvel_max              =   1.5335167137803E-03
(PID.TID 0000.0001) %MON advcfl_wvel_max              =   3.7669466532654E-03
(PID.TID 0000.0001) %MON advcfl_W_hf_max              =   3.7669466532654E-03
(PID.TID 0000.0001) %MON pe_b_mean                    =  -8.3093733300701E-01
(PID.TID 0000.0001) %MON ke_max                       =   1.2497998747387E-04
(PID.TID 0000.0001) %MON ke_mean                      =   2.2489341576954E-07
(PID.TID 0000.0001) %MON ke_vol                       =   4.2724847393939E+12
(PID.TID 0000.0001) // =======================================================
(PID.TID 0000.0001) // End MONITOR dynamic field statistics
(PID.TID 0000.0001) // =======================================================
(PID.TID 0000.0001) // =======================================================
(PID.TID 0000.0001) // Begin OBCS MONITOR field statistics
(PID.TID 0000.0001) // =======================================================
(PID.TID 0000.0001) %MON obc_N_vVel_max               =   1.5190950099546E-05
(PID.TID 0000.0001) %MON obc_N_vVel_min               =   1.5190950099546E-05
(PID.TID 0000.0001) %MON obc_N_vVel_mean              =   1.5190950099546E-05
(PID.TID 0000.0001) %MON obc_N_vVel_sd                =  -6.1263064117209E-24
(PID.TID 0000.0001) %MON obc_N_vVel_Int               =   1.0026027065700E+03
(PID.TID 0000.0001) // =======================================================
(PID.TID 0000.0001) // End OBCS MONITOR field statistics
(PID.TID 0000.0001) // =======================================================
 cg2d: Sum(rhs),rhsMax =   4.51482343799265E+00  2.99928958287689E+02
(PID.TID 0000.0001)      cg2d_init_res =   7.07643757379764E-06
(PID.TID 0000.0001)      cg2d_iters(min,last) =      -1      81
(PID.TID 0000.0001)      cg2d_last_res =   9.87426051745066E-12
(PID.TID 0000.0001) // =======================================================
(PID.TID 0000.0001) // Begin MONITOR dynamic field statistics
(PID.TID 0000.0001) // =======================================================
(PID.TID 0000.0001) %MON time_tsnumber                =                   981
(PID.TID 0000.0001) %MON time_secondsf                =   9.8100000000000E+04
(PID.TID 0000.0001) %MON dynstat_eta_max              =   5.7958229111006E+00
(PID.TID 0000.0001) %MON dynstat_eta_min              =  -1.4198783424586E+01
(PID.TID 0000.0001) %MON dynstat_eta_mean             =  -2.5076412789074E+00
(PID.TID 0000.0001) %MON dynstat_eta_sd               =   4.9511729484666E+00
(PID.TID 0000.0001) %MON dynstat_eta_del2             =   2.0714874370110E-01
(PID.TID 0000.0001) %MON dynstat_uvel_max             =   4.3420390260174E-03
(PID.TID 0000.0001) %MON dynstat_uvel_min             =  -1.9246390623135E-02
(PID.TID 0000.0001) %MON dynstat_uvel_mean            =  -1.1747388066989E-07
(PID.TID 0000.0001) %MON dynstat_uvel_sd              =   5.7185617730082E-04
(PID.TID 0000.0001) %MON dynstat_uvel_del2            =   8.5551099040397E-07
(PID.TID 0000.0001) %MON dynstat_vvel_max             =   1.5374245570009E-02
(PID.TID 0000.0001) %MON dynstat_vvel_min             =  -6.5864046523654E-03
(PID.TID 0000.0001) %MON dynstat_vvel_mean            =   1.5538484255888E-05
(PID.TID 0000.0001) %MON dynstat_vvel_sd              =   3.6219482936346E-04
(PID.TID 0000.0001) %MON dynstat_vvel_del2            =   7.2844479649471E-07
(PID.TID 0000.0001) %MON dynstat_wvel_max             =   7.5549116741116E-04
(PID.TID 0000.0001) %MON dynstat_wvel_min             =  -7.3887593791218E-04
(PID.TID 0000.0001) %MON dynstat_wvel_mean            =   7.5985444052567E-09
(PID.TID 0000.0001) %MON dynstat_wvel_sd              =   1.7734947853320E-05
(PID.TID 0000.0001) %MON dynstat_wvel_del2            =   7.3930129327774E-08
(PID.TID 0000.0001) %MON dynstat_theta_max            =   1.2000000000000E+00
(PID.TID 0000.0001) %MON dynstat_theta_min            =  -1.0000000000000E+00
(PID.TID 0000.0001) %MON dynstat_theta_mean           =   5.6879439281586E-01
(PID.TID 0000.0001) %MON dynstat_theta_sd             =   8.6841698404107E-01
(PID.TID 0000.0001) %MON dynstat_theta_del2           =   2.3040780988521E-06
(PID.TID 0000.0001) %MON dynstat_salt_max             =   3.4700000000000E+01
(PID.TID 0000.0001) %MON dynstat_salt_min             =   3.4000000000000E+01
(PID.TID 0000.0001) %MON dynstat_salt_mean            =   3.4499131934298E+01
(PID.TID 0000.0001) %MON dynstat_salt_sd              =   2.7630370488243E-01
(PID.TID 0000.0001) %MON dynstat_salt_del2            =   9.0681184705858E-07
(PID.TID 0000.0001) %MON advcfl_uvel_max              =   1.9246390623135E-03
(PID.TID 0000.0001) %MON advcfl_vvel_max              =   1.5374245570009E-03
(PID.TID 0000.0001) %MON advcfl_wvel_max              =   3.7774558370558E-03
(PID.TID 0000.0001) %MON advcfl_W_hf_max              =   3.7774558370558E-03
(PID.TID 0000.0001) %MON pe_b_mean                    =  -8.3094021467871E-01
(PID.TID 0000.0001) %MON ke_max                       =   1.2572985601270E-04
(PID.TID 0000.0001) %MON ke_mean                      =   2.2597697006457E-07
(PID.TID 0000.0001) %MON ke_vol                       =   4.2724846751541E+12
(PID.TID 0000.0001) // =======================================================
(PID.TID 0000.0001) // End MONITOR dynamic field statistics
(PID.TID 0000.0001) // =======================================================
(PID.TID 0000.0001) // =======================================================
(PID.TID 0000.0001) // Begin OBCS MONITOR field statistics
(PID.TID 0000.0001) // =======================================================
(PID.TID 0000.0001) %MON obc_N_vVel_max               =   1.5218874279530E-05
(PID.TID 0000.0001) %MON obc_N_vVel_min               =   1.5218874279529E-05
(PID.TID 0000.0001) %MON obc_N_vVel_mean              =   1.5218874279529E-05
(PID.TID 0000.0001) %MON obc_N_vVel_sd                =   2.8670729563870E-12
(PID.TID 0000.0001) %MON obc_N_vVel_Int               =   1.0044457024489E+03
(PID.TID 0000.0001) // =======================================================
(PID.TID 0000.0001) // End OBCS MONITOR field statistics
(PID.TID 0000.0001) // =======================================================
 cg2d: Sum(rhs),rhsMax =   4.51484159581214E+00  2.99929049562744E+02
(PID.TID 0000.0001)      cg2d_init_res =   7.08257568732797E-06
(PID.TID 0000.0001)      cg2d_iters(min,last) =      -1      81
(PID.TID 0000.0001)      cg2d_last_res =   9.87675534110559E-12
(PID.TID 0000.0001) // =======================================================
(PID.TID 0000.0001) // Begin MONITOR dynamic field statistics
(PID.TID 0000.0001) // =======================================================
(PID.TID 0000.0001) %MON time_tsnumber                =                   982
(PID.TID 0000.0001) %MON time_secondsf                =   9.8200000000000E+04
(PID.TID 0000.0001) %MON dynstat_eta_max              =   5.7958195060148E+00
(PID.TID 0000.0001) %MON dynstat_eta_min              =  -1.4198805862526E+01
(PID.TID 0000.0001) %MON dynstat_eta_mean             =  -2.5076521273301E+00
(PID.TID 0000.0001) %MON dynstat_eta_sd               =   4.9511767933728E+00
(PID.TID 0000.0001) %MON dynstat_eta_del2             =   2.0714876974815E-01
(PID.TID 0000.0001) %MON dynstat_uvel_max             =   4.3532577903456E-03
(PID.TID 0000.0001) %MON dynstat_uvel_min             =  -1.9293493137784E-02
(PID.TID 0000.0001) %MON dynstat_uvel_mean            =  -1.1726681001262E-07
(PID.TID 0000.0001) %MON dynstat_uvel_sd              =   5.7332647415195E-04
(PID.TID 0000.0001) %MON dynstat_uvel_del2            =   8.5744990325940E-07
(PID.TID 0000.0001) %MON dynstat_vvel_max             =   1.5413385701086E-02
(PID.TID 0000.0001) %MON dynstat_vvel_min             =  -6.5982604589836E-03
(PID.TID 0000.0001) %MON dynstat_vvel_mean            =   1.5563017117093E-05
(PID.TID 0000.0001) %MON dynstat_vvel_sd              =   3.6290922137031E-04
(PID.TID 0000.0001) %MON dynstat_vvel_del2            =   7.2929676623888E-07
(PID.TID 0000.0001) %MON dynstat_wvel_max             =   7.5759712054713E-04
(PID.TID 0000.0001) %MON dynstat_wvel_min             =  -7.4085320568787E-04
(PID.TID 0000.0001) %MON dynstat_wvel_mean            =   7.5943834301868E-09
(PID.TID 0000.0001) %MON dynstat_wvel_sd              =   1.7664222403009E-05
(PID.TID 0000.0001) %MON dynstat_wvel_del2            =   7.3547728203949E-08
(PID.TID 0000.0001) %MON dynstat_theta_max            =   1.2000000000000E+00
(PID.TID 0000.0001) %MON dynstat_theta_min            =  -1.0000000000000E+00
(PID.TID 0000.0001) %MON dynstat_theta_mean           =   5.6879366678972E-01
(PID.TID 0000.0001) %MON dynstat_theta_sd             =   8.6841659025107E-01
(PID.TID 0000.0001) %MON dynstat_theta_del2           =   2.3092770002189E-06
(PID.TID 0000.0001) %MON dynstat_salt_max             =   3.4700000000000E+01
(PID.TID 0000.0001) %MON dynstat_salt_min             =   3.4000000000000E+01
(PID.TID 0000.0001) %MON dynstat_salt_mean            =   3.4499131643841E+01
(PID.TID 0000.0001) %MON dynstat_salt_sd              =   2.7630355366098E-01
(PID.TID 0000.0001) %MON dynstat_salt_del2            =   9.0881611370737E-07
(PID.TID 0000.0001) %MON advcfl_uvel_max              =   1.9293493137784E-03
(PID.TID 0000.0001) %MON advcfl_vvel_max              =   1.5413385701086E-03
(PID.TID 0000.0001) %MON advcfl_wvel_max              =   3.7879856027357E-03
(PID.TID 0000.0001) %MON advcfl_W_hf_max              =   3.7879856027357E-03
(PID.TID 0000.0001) %MON pe_b_mean                    =  -8.3094309805929E-01
(PID.TID 0000.0001) %MON ke_max                       =   1.2648366054514E-04
(PID.TID 0000.0001) %MON ke_mean                      =   2.2706153046203E-07
(PID.TID 0000.0001) %MON ke_vol                       =   4.2724846108033E+12
(PID.TID 0000.0001) // =======================================================
(PID.TID 0000.0001) // End MONITOR dynamic field statistics
(PID.TID 0000.0001) // =======================================================
(PID.TID 0000.0001) // =======================================================
(PID.TID 0000.0001) // Begin OBCS MONITOR field statistics
(PID.TID 0000.0001) // =======================================================
(PID.TID 0000.0001) %MON obc_N_vVel_max               =   1.5243465085192E-05
(PID.TID 0000.0001) %MON obc_N_vVel_min               =   1.5243465085191E-05
(PID.TID 0000.0001) %MON obc_N_vVel_mean              =   1.5243465085192E-05
(PID.TID 0000.0001) %MON obc_N_vVel_sd                =  -8.6336976435222E-24
(PID.TID 0000.0001) %MON obc_N_vVel_Int               =   1.0060686956226E+03
(PID.TID 0000.0001) // =======================================================
(PID.TID 0000.0001) // End OBCS MONITOR field statistics
(PID.TID 0000.0001) // =======================================================
 cg2d: Sum(rhs),rhsMax =   4.51485978218188E+00  2.99929140259565E+02
(PID.TID 0000.0001)      cg2d_init_res =   7.08533454285805E-06
(PID.TID 0000.0001)      cg2d_iters(min,last) =      -1      81
(PID.TID 0000.0001)      cg2d_last_res =   9.87843417187293E-12
(PID.TID 0000.0001) // =======================================================
(PID.TID 0000.0001) // Begin MONITOR dynamic field statistics
(PID.TID 0000.0001) // =======================================================
(PID.TID 0000.0001) %MON time_tsnumber                =                   983
(PID.TID 0000.0001) %MON time_secondsf                =   9.8300000000000E+04
(PID.TID 0000.0001) %MON dynstat_eta_max              =   5.7958161117858E+00
(PID.TID 0000.0001) %MON dynstat_eta_min              =  -1.4198828325154E+01
(PID.TID 0000.0001) %MON dynstat_eta_mean             =  -2.5076629867820E+00
(PID.TID 0000.0001) %MON dynstat_eta_sd               =   4.9511806391930E+00
(PID.TID 0000.0001) %MON dynstat_eta_del2             =   2.0714879584894E-01
(PID.TID 0000.0001) %MON dynstat_uvel_max             =   4.3644997744217E-03
(PID.TID 0000.0001) %MON dynstat_uvel_min             =  -1.9340661198925E-02
(PID.TID 0000.0001) %MON dynstat_uvel_mean            =  -1.1705294476272E-07
(PID.TID 0000.0001) %MON dynstat_uvel_sd              =   5.7480013814471E-04
(PID.TID 0000.0001) %MON dynstat_uvel_del2            =   8.5939437770295E-07
(PID.TID 0000.0001) %MON dynstat_vvel_max             =   1.5452587401738E-02
(PID.TID 0000.0001) %MON dynstat_vvel_min             =  -6.6101298760257E-03
(PID.TID 0000.0001) %MON dynstat_vvel_mean            =   1.5583562303413E-05
(PID.TID 0000.0001) %MON dynstat_vvel_sd              =   3.6361511713723E-04
(PID.TID 0000.0001) %MON dynstat_vvel_del2            =   7.3015507073527E-07
(PID.TID 0000.0001) %MON dynstat_wvel_max             =   7.5970719009994E-04
(PID.TID 0000.0001) %MON dynstat_wvel_min             =  -7.4283442571938E-04
(PID.TID 0000.0001) %MON dynstat_wvel_mean            =   7.5846587873668E-09
(PID.TID 0000.0001) %MON dynstat_wvel_sd              =   1.7571846348254E-05
(PID.TID 0000.0001) %MON dynstat_wvel_del2            =   7.3160878771837E-08
(PID.TID 0000.0001) %MON dynstat_theta_max            =   1.2000000000000E+00
(PID.TID 0000.0001) %MON dynstat_theta_min            =  -1.0000000000000E+00
(PID.TID 0000.0001) %MON dynstat_theta_mean           =   5.6879293929861E-01
(PID.TID 0000.0001) %MON dynstat_theta_sd             =   8.6841619570388E-01
(PID.TID 0000.0001) %MON dynstat_theta_del2           =   2.3144990175027E-06
(PID.TID 0000.0001) %MON dynstat_salt_max             =   3.4700000000000E+01
(PID.TID 0000.0001) %MON dynstat_salt_min             =   3.4000000000000E+01
(PID.TID 0000.0001) %MON dynstat_salt_mean            =   3.4499131352796E+01
(PID.TID 0000.0001) %MON dynstat_salt_sd              =   2.7630340214284E-01
(PID.TID 0000.0001) %MON dynstat_salt_del2            =   9.1082763256630E-07
(PID.TID 0000.0001) %MON advcfl_uvel_max              =   1.9340661198925E-03
(PID.TID 0000.0001) %MON advcfl_vvel_max              =   1.5452587401738E-03
(PID.TID 0000.0001) %MON advcfl_wvel_max              =   3.7985359504997E-03
(PID.TID 0000.0001) %MON advcfl_W_hf_max              =   3.7985359504997E-03
(PID.TID 0000.0001) %MON pe_b_mean                    =  -8.3094598210572E-01
(PID.TID 0000.0001) %MON ke_max                       =   1.2724141769339E-04
(PID.TID 0000.0001) %MON ke_mean                      =   2.2814746694145E-07
(PID.TID 0000.0001) %MON ke_vol                       =   4.2724845463637E+12
(PID.TID 0000.0001) // =======================================================
(PID.TID 0000.0001) // End MONITOR dynamic field statistics
(PID.TID 0000.0001) // =======================================================
(PID.TID 0000.0001) // =======================================================
(PID.TID 0000.0001) // Begin OBCS MONITOR field statistics
(PID.TID 0000.0001) // =======================================================
(PID.TID 0000.0001) %MON obc_N_vVel_max               =   1.5264526332160E-05
(PID.TID 0000.0001) %MON obc_N_vVel_min               =   1.5264526332159E-05
(PID.TID 0000.0001) %MON obc_N_vVel_mean              =   1.5264526332160E-05
(PID.TID 0000.0001) %MON obc_N_vVel_sd                =  -6.3589509590014E-24
(PID.TID 0000.0001) %MON obc_N_vVel_Int               =   1.0074587379225E+03
(PID.TID 0000.0001) // =======================================================
(PID.TID 0000.0001) // End OBCS MONITOR field statistics
(PID.TID 0000.0001) // =======================================================
 cg2d: Sum(rhs),rhsMax =   4.51487799156462E+00  2.99929230252836E+02
(PID.TID 0000.0001)      cg2d_init_res =   7.08463574851792E-06
(PID.TID 0000.0001)      cg2d_iters(min,last) =      -1      81
(PID.TID 0000.0001)      cg2d_last_res =   9.87913998989523E-12
(PID.TID 0000.0001) // =======================================================
(PID.TID 0000.0001) // Begin MONITOR dynamic field statistics
(PID.TID 0000.0001) // =======================================================
(PID.TID 0000.0001) %MON time_tsnumber                =                   984
(PID.TID 0000.0001) %MON time_secondsf                =   9.8400000000000E+04
(PID.TID 0000.0001) %MON dynstat_eta_max              =   5.7958127359927E+00
(PID.TID 0000.0001) %MON dynstat_eta_min              =  -1.4198850805071E+01
(PID.TID 0000.0001) %MON dynstat_eta_mean             =  -2.5076738531397E+00
(PID.TID 0000.0001) %MON dynstat_eta_sd               =   4.9511844844242E+00
(PID.TID 0000.0001) %MON dynstat_eta_del2             =   2.0714882200175E-01
(PID.TID 0000.0001) %MON dynstat_uvel_max             =   4.3757650097476E-03
(PID.TID 0000.0001) %MON dynstat_uvel_min             =  -1.9387894712064E-02
(PID.TID 0000.0001) %MON dynstat_uvel_mean            =  -1.1683374091801E-07
(PID.TID 0000.0001) %MON dynstat_uvel_sd              =   5.7627714597296E-04
(PID.TID 0000.0001) %MON dynstat_uvel_del2            =   8.6134433868790E-07
(PID.TID 0000.0001) %MON dynstat_vvel_max             =   1.5491850546743E-02
(PID.TID 0000.0001) %MON dynstat_vvel_min             =  -6.6220129250283E-03
(PID.TID 0000.0001) %MON dynstat_vvel_mean            =   1.5599947229686E-05
(PID.TID 0000.0001) %MON dynstat_vvel_sd              =   3.6431385488785E-04
(PID.TID 0000.0001) %MON dynstat_vvel_del2            =   7.3102956174008E-07
(PID.TID 0000.0001) %MON dynstat_wvel_max             =   7.6182137602448E-04
(PID.TID 0000.0001) %MON dynstat_wvel_min             =  -7.4481959530238E-04
(PID.TID 0000.0001) %MON dynstat_wvel_mean            =   7.5694025592264E-09
(PID.TID 0000.0001) %MON dynstat_wvel_sd              =   1.7459641107759E-05
(PID.TID 0000.0001) %MON dynstat_wvel_del2            =   7.2772865090954E-08
(PID.TID 0000.0001) %MON dynstat_theta_max            =   1.2000000000000E+00
(PID.TID 0000.0001) %MON dynstat_theta_min            =  -1.0000000000000E+00
(PID.TID 0000.0001) %MON dynstat_theta_mean           =   5.6879221033554E-01
(PID.TID 0000.0001) %MON dynstat_theta_sd             =   8.6841580039958E-01
(PID.TID 0000.0001) %MON dynstat_theta_del2           =   2.3197351090943E-06
(PID.TID 0000.0001) %MON dynstat_salt_max             =   3.4700000000000E+01
(PID.TID 0000.0001) %MON dynstat_salt_min             =   3.4000000000000E+01
(PID.TID 0000.0001) %MON dynstat_salt_mean            =   3.4499131061161E+01
(PID.TID 0000.0001) %MON dynstat_salt_sd              =   2.7630325032788E-01
(PID.TID 0000.0001) %MON dynstat_salt_del2            =   9.1284419598512E-07
(PID.TID 0000.0001) %MON advcfl_uvel_max              =   1.9387894712064E-03
(PID.TID 0000.0001) %MON advcfl_vvel_max              =   1.5491850546743E-03
(PID.TID 0000.0001) %MON advcfl_wvel_max              =   3.8091068801224E-03
(PID.TID 0000.0001) %MON advcfl_W_hf_max              =   3.8091068801224E-03
(PID.TID 0000.0001) %MON pe_b_mean                    =  -8.3094886573264E-01
(PID.TID 0000.0001) %MON ke_max                       =   1.2800314416275E-04
(PID.TID 0000.0001) %MON ke_mean                      =   2.2923524751293E-07
(PID.TID 0000.0001) %MON ke_vol                       =   4.2724844818585E+12
(PID.TID 0000.0001) // =======================================================
(PID.TID 0000.0001) // End MONITOR dynamic field statistics
(PID.TID 0000.0001) // =======================================================
(PID.TID 0000.0001) // =======================================================
(PID.TID 0000.0001) // Begin OBCS MONITOR field statistics
(PID.TID 0000.0001) // =======================================================
(PID.TID 0000.0001) %MON obc_N_vVel_max               =   1.5281885748541E-05
(PID.TID 0000.0001) %MON obc_N_vVel_min               =   1.5281885748541E-05
(PID.TID 0000.0001) %MON obc_N_vVel_mean              =   1.5281885748541E-05
(PID.TID 0000.0001) %MON obc_N_vVel_sd                =  -1.8404768629305E-23
(PID.TID 0000.0001) %MON obc_N_vVel_Int               =   1.0086044594037E+03
(PID.TID 0000.0001) // =======================================================
(PID.TID 0000.0001) // End OBCS MONITOR field statistics
(PID.TID 0000.0001) // =======================================================
 cg2d: Sum(rhs),rhsMax =   4.51489621808780E+00  2.99929319420020E+02
(PID.TID 0000.0001)      cg2d_init_res =   7.08039081245170E-06
(PID.TID 0000.0001)      cg2d_iters(min,last) =      -1      81
(PID.TID 0000.0001)      cg2d_last_res =   9.87889810006882E-12
(PID.TID 0000.0001) // =======================================================
(PID.TID 0000.0001) // Begin MONITOR dynamic field statistics
(PID.TID 0000.0001) // =======================================================
(PID.TID 0000.0001) %MON time_tsnumber                =                   985
(PID.TID 0000.0001) %MON time_secondsf                =   9.8500000000000E+04
(PID.TID 0000.0001) %MON dynstat_eta_max              =   5.7958093864568E+00
(PID.TID 0000.0001) %MON dynstat_eta_min              =  -1.4198873294629E+01
(PID.TID 0000.0001) %MON dynstat_eta_mean             =  -2.5076847221169E+00
(PID.TID 0000.0001) %MON dynstat_eta_sd               =   4.9511883275356E+00
(PID.TID 0000.0001) %MON dynstat_eta_del2             =   2.0714884820483E-01
(PID.TID 0000.0001) %MON dynstat_uvel_max             =   4.3870535254413E-03
(PID.TID 0000.0001) %MON dynstat_uvel_min             =  -1.9435193584670E-02
(PID.TID 0000.0001) %MON dynstat_uvel_mean            =  -1.1661072356515E-07
(PID.TID 0000.0001) %MON dynstat_uvel_sd              =   5.7775747226867E-04
(PID.TID 0000.0001) %MON dynstat_uvel_del2            =   8.6329970779007E-07
(PID.TID 0000.0001) %MON dynstat_vvel_max             =   1.5531175015256E-02
(PID.TID 0000.0001) %MON dynstat_vvel_min             =  -6.6339096241963E-03
(PID.TID 0000.0001) %MON dynstat_vvel_mean            =   1.5612028626694E-05
(PID.TID 0000.0001) %MON dynstat_vvel_sd              =   3.6500700776992E-04
(PID.TID 0000.0001) %MON dynstat_vvel_del2            =   7.3192932732312E-07
(PID.TID 0000.0001) %MON dynstat_wvel_max             =   7.6393967821210E-04
(PID.TID 0000.0001) %MON dynstat_wvel_min             =  -7.4680871189320E-04
(PID.TID 0000.0001) %MON dynstat_wvel_mean            =   7.5486909020448E-09
(PID.TID 0000.0001) %MON dynstat_wvel_sd              =   1.7329824179033E-05
(PID.TID 0000.0001) %MON dynstat_wvel_del2            =   7.2384717517225E-08
(PID.TID 0000.0001) %MON dynstat_theta_max            =   1.2000000000000E+00
(PID.TID 0000.0001) %MON dynstat_theta_min            =  -1.0000000000000E+00
(PID.TID 0000.0001) %MON dynstat_theta_mean           =   5.6879147989340E-01
(PID.TID 0000.0001) %MON dynstat_theta_sd             =   8.6841540434231E-01
(PID.TID 0000.0001) %MON dynstat_theta_del2           =   2.3249760975719E-06
(PID.TID 0000.0001) %MON dynstat_salt_max             =   3.4700000000000E+01
(PID.TID 0000.0001) %MON dynstat_salt_min             =   3.4000000000000E+01
(PID.TID 0000.0001) %MON dynstat_salt_mean            =   3.4499130768934E+01
(PID.TID 0000.0001) %MON dynstat_salt_sd              =   2.7630309821721E-01
(PID.TID 0000.0001) %MON dynstat_salt_del2            =   9.1486276923807E-07
(PID.TID 0000.0001) %MON advcfl_uvel_max              =   1.9435193584670E-03
(PID.TID 0000.0001) %MON advcfl_vvel_max              =   1.5531175015256E-03
(PID.TID 0000.0001) %MON advcfl_wvel_max              =   3.8196983910605E-03
(PID.TID 0000.0001) %MON advcfl_W_hf_max              =   3.8196983910605E-03
(PID.TID 0000.0001) %MON pe_b_mean                    =  -8.3095174782034E-01
(PID.TID 0000.0001) %MON ke_max                       =   1.2876885674191E-04
(PID.TID 0000.0001) %MON ke_mean                      =   2.3032542906642E-07
(PID.TID 0000.0001) %MON ke_vol                       =   4.2724844173124E+12
(PID.TID 0000.0001) // =======================================================
(PID.TID 0000.0001) // End MONITOR dynamic field statistics
(PID.TID 0000.0001) // =======================================================
(PID.TID 0000.0001) // =======================================================
(PID.TID 0000.0001) // Begin OBCS MONITOR field statistics
(PID.TID 0000.0001) // =======================================================
(PID.TID 0000.0001) %MON obc_N_vVel_max               =   1.5295396762988E-05
(PID.TID 0000.0001) %MON obc_N_vVel_min               =   1.5295396762988E-05
(PID.TID 0000.0001) %MON obc_N_vVel_mean              =   1.5295396762988E-05
(PID.TID 0000.0001) %MON obc_N_vVel_sd                =  -1.4475660719678E-23
(PID.TID 0000.0001) %MON obc_N_vVel_Int               =   1.0094961863572E+03
(PID.TID 0000.0001) // =======================================================
(PID.TID 0000.0001) // End OBCS MONITOR field statistics
(PID.TID 0000.0001) // =======================================================
 cg2d: Sum(rhs),rhsMax =   4.51491445557587E+00  2.99929407642799E+02
(PID.TID 0000.0001)      cg2d_init_res =   7.07249601362655E-06
(PID.TID 0000.0001)      cg2d_iters(min,last) =      -1      81
(PID.TID 0000.0001)      cg2d_last_res =   9.87772325093527E-12
(PID.TID 0000.0001) // =======================================================
(PID.TID 0000.0001) // Begin MONITOR dynamic field statistics
(PID.TID 0000.0001) // =======================================================
(PID.TID 0000.0001) %MON time_tsnumber                =                   986
(PID.TID 0000.0001) %MON time_secondsf                =   9.8600000000000E+04
(PID.TID 0000.0001) %MON dynstat_eta_max              =   5.7958060711823E+00
(PID.TID 0000.0001) %MON dynstat_eta_min              =  -1.4198895785971E+01
(PID.TID 0000.0001) %MON dynstat_eta_mean             =  -2.5076955892940E+00
(PID.TID 0000.0001) %MON dynstat_eta_sd               =   4.9511921669712E+00
(PID.TID 0000.0001) %MON dynstat_eta_del2             =   2.0714887445646E-01
(PID.TID 0000.0001) %MON dynstat_uvel_max             =   4.3983653632829E-03
(PID.TID 0000.0001) %MON dynstat_uvel_min             =  -1.9482557748514E-02
(PID.TID 0000.0001) %MON dynstat_uvel_mean            =  -1.1638550717149E-07
(PID.TID 0000.0001) %MON dynstat_uvel_sd              =   5.7924109047466E-04
(PID.TID 0000.0001) %MON dynstat_uvel_del2            =   8.6526039536456E-07
(PID.TID 0000.0001) %MON dynstat_vvel_max             =   1.5570560691162E-02
(PID.TID 0000.0001) %MON dynstat_vvel_min             =  -6.6458199899850E-03
(PID.TID 0000.0001) %MON dynstat_vvel_mean            =   1.5619694321041E-05
(PID.TID 0000.0001) %MON dynstat_vvel_sd              =   3.6569635165505E-04
(PID.TID 0000.0001) %MON dynstat_vvel_del2            =   7.3286282681366E-07
(PID.TID 0000.0001) %MON dynstat_wvel_max             =   7.6606209648684E-04
(PID.TID 0000.0001) %MON dynstat_wvel_min             =  -7.4880177327744E-04
(PID.TID 0000.0001) %MON dynstat_wvel_mean            =   7.5226458604322E-09
(PID.TID 0000.0001) %MON dynstat_wvel_sd              =   1.7185085128981E-05
(PID.TID 0000.0001) %MON dynstat_wvel_del2            =   7.1996461654763E-08
(PID.TID 0000.0001) %MON dynstat_theta_max            =   1.2000000000000E+00
(PID.TID 0000.0001) %MON dynstat_theta_min            =  -1.0000000000000E+00
(PID.TID 0000.0001) %MON dynstat_theta_mean           =   5.6879074796502E-01
(PID.TID 0000.0001) %MON dynstat_theta_sd             =   8.6841500753427E-01
(PID.TID 0000.0001) %MON dynstat_theta_del2           =   2.3302095944564E-06
(PID.TID 0000.0001) %MON dynstat_salt_max             =   3.4700000000000E+01
(PID.TID 0000.0001) %MON dynstat_salt_min             =   3.4000000000000E+01
(PID.TID 0000.0001) %MON dynstat_salt_mean            =   3.4499130476111E+01
(PID.TID 0000.0001) %MON dynstat_salt_sd              =   2.7630294581179E-01
(PID.TID 0000.0001) %MON dynstat_salt_del2            =   9.1688124476904E-07
(PID.TID 0000.0001) %MON advcfl_uvel_max              =   1.9482557748514E-03
(PID.TID 0000.0001) %MON advcfl_vvel_max              =   1.5570560691162E-03
(PID.TID 0000.0001) %MON advcfl_wvel_max              =   3.8303104824342E-03
(PID.TID 0000.0001) %MON advcfl_W_hf_max              =   3.8303104824342E-03
(PID.TID 0000.0001) %MON pe_b_mean                    =  -8.3095462722262E-01
(PID.TID 0000.0001) %MON ke_max                       =   1.2953857240517E-04
(PID.TID 0000.0001) %MON ke_mean                      =   2.3141864683516E-07
(PID.TID 0000.0001) %MON ke_vol                       =   4.2724843527506E+12
(PID.TID 0000.0001) // =======================================================
(PID.TID 0000.0001) // End MONITOR dynamic field statistics
(PID.TID 0000.0001) // =======================================================
(PID.TID 0000.0001) // =======================================================
(PID.TID 0000.0001) // Begin OBCS MONITOR field statistics
(PID.TID 0000.0001) // =======================================================
(PID.TID 0000.0001) %MON obc_N_vVel_max               =   1.5304940173499E-05
(PID.TID 0000.0001) %MON obc_N_vVel_min               =   1.5304940173499E-05
(PID.TID 0000.0001) %MON obc_N_vVel_mean              =   1.5304940173499E-05
(PID.TID 0000.0001) %MON obc_N_vVel_sd                =   2.8398962960629E-12
(PID.TID 0000.0001) %MON obc_N_vVel_Int               =   1.0101260514509E+03
(PID.TID 0000.0001) // =======================================================
(PID.TID 0000.0001) // End OBCS MONITOR field statistics
(PID.TID 0000.0001) // =======================================================
 cg2d: Sum(rhs),rhsMax =   4.51493269759948E+00  2.99929494807974E+02
(PID.TID 0000.0001)      cg2d_init_res =   7.06091385342784E-06
(PID.TID 0000.0001)      cg2d_iters(min,last) =      -1      81
(PID.TID 0000.0001)      cg2d_last_res =   9.87598427291707E-12
(PID.TID 0000.0001) // =======================================================
(PID.TID 0000.0001) // Begin MONITOR dynamic field statistics
(PID.TID 0000.0001) // =======================================================
(PID.TID 0000.0001) %MON time_tsnumber                =                   987
(PID.TID 0000.0001) %MON time_secondsf                =   9.8700000000000E+04
(PID.TID 0000.0001) %MON dynstat_eta_max              =   5.7958027983070E+00
(PID.TID 0000.0001) %MON dynstat_eta_min              =  -1.4198918271092E+01
(PID.TID 0000.0001) %MON dynstat_eta_mean             =  -2.5077064501537E+00
(PID.TID 0000.0001) %MON dynstat_eta_sd               =   4.9511960011796E+00
(PID.TID 0000.0001) %MON dynstat_eta_del2             =   2.0714890075510E-01
(PID.TID 0000.0001) %MON dynstat_uvel_max             =   4.4097005520385E-03
(PID.TID 0000.0001) %MON dynstat_uvel_min             =  -1.9529987135282E-02
(PID.TID 0000.0001) %MON dynstat_uvel_mean            =  -1.1615971523413E-07
(PID.TID 0000.0001) %MON dynstat_uvel_sd              =   5.8072797259112E-04
(PID.TID 0000.0001) %MON dynstat_uvel_del2            =   8.6722631692177E-07
(PID.TID 0000.0001) %MON dynstat_vvel_max             =   1.5610007463461E-02
(PID.TID 0000.0001) %MON dynstat_vvel_min             =  -6.6577440350928E-03
(PID.TID 0000.0001) %MON dynstat_vvel_mean            =   1.5622864707625E-05
(PID.TID 0000.0001) %MON dynstat_vvel_sd              =   3.6638382528424E-04
(PID.TID 0000.0001) %MON dynstat_vvel_del2            =   7.3383804071557E-07
(PID.TID 0000.0001) %MON dynstat_wvel_max             =   7.6818863058671E-04
(PID.TID 0000.0001) %MON dynstat_wvel_min             =  -7.5079877727318E-04
(PID.TID 0000.0001) %MON dynstat_wvel_mean            =   7.4914320371629E-09
(PID.TID 0000.0001) %MON dynstat_wvel_sd              =   1.7028663278743E-05
(PID.TID 0000.0001) %MON dynstat_wvel_del2            =   7.1608569729096E-08
(PID.TID 0000.0001) %MON dynstat_theta_max            =   1.2000000000000E+00
(PID.TID 0000.0001) %MON dynstat_theta_min            =  -1.0000000000000E+00
(PID.TID 0000.0001) %MON dynstat_theta_mean           =   5.6879001454363E-01
(PID.TID 0000.0001) %MON dynstat_theta_sd             =   8.6841460997640E-01
(PID.TID 0000.0001) %MON dynstat_theta_del2           =   2.3354284991870E-06
(PID.TID 0000.0001) %MON dynstat_salt_max             =   3.4700000000000E+01
(PID.TID 0000.0001) %MON dynstat_salt_min             =   3.4000000000000E+01
(PID.TID 0000.0001) %MON dynstat_salt_mean            =   3.4499130182692E+01
(PID.TID 0000.0001) %MON dynstat_salt_sd              =   2.7630279311162E-01
(PID.TID 0000.0001) %MON dynstat_salt_del2            =   9.1889784823764E-07
(PID.TID 0000.0001) %MON advcfl_uvel_max              =   1.9529987135282E-03
(PID.TID 0000.0001) %MON advcfl_vvel_max              =   1.5610007463461E-03
(PID.TID 0000.0001) %MON advcfl_wvel_max              =   3.8409431529336E-03
(PID.TID 0000.0001) %MON advcfl_W_hf_max              =   3.8409431529336E-03
(PID.TID 0000.0001) %MON pe_b_mean                    =  -8.3095750277621E-01
(PID.TID 0000.0001) %MON ke_max                       =   1.3031230798571E-04
(PID.TID 0000.0001) %MON ke_mean                      =   2.3251560029190E-07
(PID.TID 0000.0001) %MON ke_vol                       =   4.2724842881996E+12
(PID.TID 0000.0001) // =======================================================
(PID.TID 0000.0001) // End MONITOR dynamic field statistics
(PID.TID 0000.0001) // =======================================================
(PID.TID 0000.0001) // =======================================================
(PID.TID 0000.0001) // Begin OBCS MONITOR field statistics
(PID.TID 0000.0001) // =======================================================
(PID.TID 0000.0001) %MON obc_N_vVel_max               =   1.5310425642658E-05
(PID.TID 0000.0001) %MON obc_N_vVel_min               =   1.5310425642657E-05
(PID.TID 0000.0001) %MON obc_N_vVel_mean              =   1.5310425642658E-05
(PID.TID 0000.0001) %MON obc_N_vVel_sd                =  -1.1787323728881E-23
(PID.TID 0000.0001) %MON obc_N_vVel_Int               =   1.0104880924154E+03
(PID.TID 0000.0001) // =======================================================
(PID.TID 0000.0001) // End OBCS MONITOR field statistics
(PID.TID 0000.0001) // =======================================================
 cg2d: Sum(rhs),rhsMax =   4.51495093751794E+00  2.99929580808456E+02
(PID.TID 0000.0001)      cg2d_init_res =   7.04561036714375E-06
(PID.TID 0000.0001)      cg2d_iters(min,last) =      -1      81
(PID.TID 0000.0001)      cg2d_last_res =   9.87384342724791E-12
(PID.TID 0000.0001) // =======================================================
(PID.TID 0000.0001) // Begin MONITOR dynamic field statistics
(PID.TID 0000.0001) // =======================================================
(PID.TID 0000.0001) %MON time_tsnumber                =                   988
(PID.TID 0000.0001) %MON time_secondsf                =   9.8800000000000E+04
(PID.TID 0000.0001) %MON dynstat_eta_max              =   5.7957995760325E+00
(PID.TID 0000.0001) %MON dynstat_eta_min              =  -1.4198940741909E+01
(PID.TID 0000.0001) %MON dynstat_eta_mean             =  -2.5077173001120E+00
(PID.TID 0000.0001) %MON dynstat_eta_sd               =   4.9511998286158E+00
(PID.TID 0000.0001) %MON dynstat_eta_del2             =   2.0714892709917E-01
(PID.TID 0000.0001) %MON dynstat_uvel_max             =   4.4210591158311E-03
(PID.TID 0000.0001) %MON dynstat_uvel_min             =  -1.9577481647911E-02
(PID.TID 0000.0001) %MON dynstat_uvel_mean            =  -1.1593499032378E-07
(PID.TID 0000.0001) %MON dynstat_uvel_sd              =   5.8221808982117E-04
(PID.TID 0000.0001) %MON dynstat_uvel_del2            =   8.6919739329806E-07
(PID.TID 0000.0001) %MON dynstat_vvel_max             =   1.5649515226485E-02
(PID.TID 0000.0001) %MON dynstat_vvel_min             =  -6.6696817658318E-03
(PID.TID 0000.0001) %MON dynstat_vvel_mean            =   1.5621494062188E-05
(PID.TID 0000.0001) %MON dynstat_vvel_sd              =   3.6707148585331E-04
(PID.TID 0000.0001) %MON dynstat_vvel_del2            =   7.3486263123477E-07
(PID.TID 0000.0001) %MON dynstat_wvel_max             =   7.7031928018258E-04
(PID.TID 0000.0001) %MON dynstat_wvel_min             =  -7.5279972237419E-04
(PID.TID 0000.0001) %MON dynstat_wvel_mean            =   7.4552585679427E-09
(PID.TID 0000.0001) %MON dynstat_wvel_sd              =   1.6864411651495E-05
(PID.TID 0000.0001) %MON dynstat_wvel_del2            =   7.1223427110198E-08
(PID.TID 0000.0001) %MON dynstat_theta_max            =   1.2000000000000E+00
(PID.TID 0000.0001) %MON dynstat_theta_min            =  -1.0000000000000E+00
(PID.TID 0000.0001) %MON dynstat_theta_mean           =   5.6878927962275E-01
(PID.TID 0000.0001) %MON dynstat_theta_sd             =   8.6841421166527E-01
(PID.TID 0000.0001) %MON dynstat_theta_del2           =   2.3406232682971E-06
(PID.TID 0000.0001) %MON dynstat_salt_max             =   3.4700000000000E+01
(PID.TID 0000.0001) %MON dynstat_salt_min             =   3.4000000000000E+01
(PID.TID 0000.0001) %MON dynstat_salt_mean            =   3.4499129888672E+01
(PID.TID 0000.0001) %MON dynstat_salt_sd              =   2.7630264011555E-01
(PID.TID 0000.0001) %MON dynstat_salt_del2            =   9.2091011322311E-07
(PID.TID 0000.0001) %MON advcfl_uvel_max              =   1.9577481647911E-03
(PID.TID 0000.0001) %MON advcfl_vvel_max              =   1.5649515226485E-03
(PID.TID 0000.0001) %MON advcfl_wvel_max              =   3.8515964009129E-03
(PID.TID 0000.0001) %MON advcfl_W_hf_max              =   3.8515964009129E-03
(PID.TID 0000.0001) %MON pe_b_mean                    =  -8.3096037330903E-01
(PID.TID 0000.0001) %MON ke_max                       =   1.3109008043629E-04
(PID.TID 0000.0001) %MON ke_mean                      =   2.3361703773678E-07
(PID.TID 0000.0001) %MON ke_vol                       =   4.2724842236861E+12
(PID.TID 0000.0001) // =======================================================
(PID.TID 0000.0001) // End MONITOR dynamic field statistics
(PID.TID 0000.0001) // =======================================================
(PID.TID 0000.0001) // =======================================================
(PID.TID 0000.0001) // Begin OBCS MONITOR field statistics
(PID.TID 0000.0001) // =======================================================
(PID.TID 0000.0001) %MON obc_N_vVel_max               =   1.5311793050572E-05
(PID.TID 0000.0001) %MON obc_N_vVel_min               =   1.5311793050572E-05
(PID.TID 0000.0001) %MON obc_N_vVel_mean              =   1.5311793050572E-05
(PID.TID 0000.0001) %MON obc_N_vVel_sd                =   3.5878960802755E-12
(PID.TID 0000.0001) %MON obc_N_vVel_Int               =   1.0105783413378E+03
(PID.TID 0000.0001) // =======================================================
(PID.TID 0000.0001) // End OBCS MONITOR field statistics
(PID.TID 0000.0001) // =======================================================
 cg2d: Sum(rhs),rhsMax =   4.51496916852590E+00  2.99929665544357E+02
(PID.TID 0000.0001)      cg2d_init_res =   7.02659923566333E-06
(PID.TID 0000.0001)      cg2d_iters(min,last) =      -1      81
(PID.TID 0000.0001)      cg2d_last_res =   9.87155892328173E-12
(PID.TID 0000.0001) // =======================================================
(PID.TID 0000.0001) // Begin MONITOR dynamic field statistics
(PID.TID 0000.0001) // =======================================================
(PID.TID 0000.0001) %MON time_tsnumber                =                   989
(PID.TID 0000.0001) %MON time_secondsf                =   9.8900000000000E+04
(PID.TID 0000.0001) %MON dynstat_eta_max              =   5.7957964125665E+00
(PID.TID 0000.0001) %MON dynstat_eta_min              =  -1.4198963190316E+01
(PID.TID 0000.0001) %MON dynstat_eta_mean             =  -2.5077281345538E+00
(PID.TID 0000.0001) %MON dynstat_eta_sd               =   4.9512036477526E+00
(PID.TID 0000.0001) %MON dynstat_eta_del2             =   2.0714895348709E-01
(PID.TID 0000.0001) %MON dynstat_uvel_max             =   4.4324410754299E-03
(PID.TID 0000.0001) %MON dynstat_uvel_min             =  -1.9625041198360E-02
(PID.TID 0000.0001) %MON dynstat_uvel_mean            =  -1.1571300863781E-07
(PID.TID 0000.0001) %MON dynstat_uvel_sd              =   5.8371141327308E-04
(PID.TID 0000.0001) %MON dynstat_uvel_del2            =   8.7117354730112E-07
(PID.TID 0000.0001) %MON dynstat_vvel_max             =   1.5689083880119E-02
(PID.TID 0000.0001) %MON dynstat_vvel_min             =  -6.6816331852975E-03
(PID.TID 0000.0001) %MON dynstat_vvel_mean            =   1.5615571609161E-05
(PID.TID 0000.0001) %MON dynstat_vvel_sd              =   3.6776145835607E-04
(PID.TID 0000.0001) %MON dynstat_vvel_del2            =   7.3594405576213E-07
(PID.TID 0000.0001) %MON dynstat_wvel_max             =   7.7245404486372E-04
(PID.TID 0000.0001) %MON dynstat_wvel_min             =  -7.5480460720440E-04
(PID.TID 0000.0001) %MON dynstat_wvel_mean            =   7.4143793346638E-09
(PID.TID 0000.0001) %MON dynstat_wvel_sd              =   1.6696829559075E-05
(PID.TID 0000.0001) %MON dynstat_wvel_del2            =   7.0846615560681E-08
(PID.TID 0000.0001) %MON dynstat_theta_max            =   1.2000000000000E+00
(PID.TID 0000.0001) %MON dynstat_theta_min            =  -1.0000000000000E+00
(PID.TID 0000.0001) %MON dynstat_theta_mean           =   5.6878854319639E-01
(PID.TID 0000.0001) %MON dynstat_theta_sd             =   8.6841381259909E-01
(PID.TID 0000.0001) %MON dynstat_theta_del2           =   2.3457836828537E-06
(PID.TID 0000.0001) %MON dynstat_salt_max             =   3.4700000000000E+01
(PID.TID 0000.0001) %MON dynstat_salt_min             =   3.4000000000000E+01
(PID.TID 0000.0001) %MON dynstat_salt_mean            =   3.4499129594052E+01
(PID.TID 0000.0001) %MON dynstat_salt_sd              =   2.7630248682305E-01
(PID.TID 0000.0001) %MON dynstat_salt_del2            =   9.2291553136322E-07
(PID.TID 0000.0001) %MON advcfl_uvel_max              =   1.9625041198360E-03
(PID.TID 0000.0001) %MON advcfl_vvel_max              =   1.5689083880119E-03
(PID.TID 0000.0001) %MON advcfl_wvel_max              =   3.8622702243186E-03
(PID.TID 0000.0001) %MON advcfl_W_hf_max              =   3.8622702243186E-03
(PID.TID 0000.0001) %MON pe_b_mean                    =  -8.3096323764941E-01
(PID.TID 0000.0001) %MON ke_max                       =   1.3187190692308E-04
(PID.TID 0000.0001) %MON ke_mean                      =   2.3472373847465E-07
(PID.TID 0000.0001) %MON ke_vol                       =   4.2724841592373E+12
(PID.TID 0000.0001) // =======================================================
(PID.TID 0000.0001) // End MONITOR dynamic field statistics
(PID.TID 0000.0001) // =======================================================
(PID.TID 0000.0001) // =======================================================
(PID.TID 0000.0001) // Begin OBCS MONITOR field statistics
(PID.TID 0000.0001) // =======================================================
(PID.TID 0000.0001) %MON obc_N_vVel_max               =   1.5309013540681E-05
(PID.TID 0000.0001) %MON obc_N_vVel_min               =   1.5309013540681E-05
(PID.TID 0000.0001) %MON obc_N_vVel_mean              =   1.5309013540681E-05
(PID.TID 0000.0001) %MON obc_N_vVel_sd                =  -8.9955891615142E-24
(PID.TID 0000.0001) %MON obc_N_vVel_Int               =   1.0103948936849E+03
(PID.TID 0000.0001) // =======================================================
(PID.TID 0000.0001) // End OBCS MONITOR field statistics
(PID.TID 0000.0001) // =======================================================
 cg2d: Sum(rhs),rhsMax =   4.51498738370373E+00  2.99929748923834E+02
(PID.TID 0000.0001)      cg2d_init_res =   7.00397552516814E-06
(PID.TID 0000.0001)      cg2d_iters(min,last) =      -1      81
(PID.TID 0000.0001)      cg2d_last_res =   9.86943899377298E-12
(PID.TID 0000.0001) // =======================================================
(PID.TID 0000.0001) // Begin MONITOR dynamic field statistics
(PID.TID 0000.0001) // =======================================================
(PID.TID 0000.0001) %MON time_tsnumber                =                   990
(PID.TID 0000.0001) %MON time_secondsf                =   9.9000000000000E+04
(PID.TID 0000.0001) %MON dynstat_eta_max              =   5.7957933160574E+00
(PID.TID 0000.0001) %MON dynstat_eta_min              =  -1.4198985608252E+01
(PID.TID 0000.0001) %MON dynstat_eta_mean             =  -2.5077389488677E+00
(PID.TID 0000.0001) %MON dynstat_eta_sd               =   4.9512074570956E+00
(PID.TID 0000.0001) %MON dynstat_eta_del2             =   2.0714897991738E-01
(PID.TID 0000.0001) %MON dynstat_uvel_max             =   4.4438464463141E-03
(PID.TID 0000.0001) %MON dynstat_uvel_min             =  -1.9672665706992E-02
(PID.TID 0000.0001) %MON dynstat_uvel_mean            =  -1.1549545513088E-07
(PID.TID 0000.0001) %MON dynstat_uvel_sd              =   5.8520791446900E-04
(PID.TID 0000.0001) %MON dynstat_uvel_del2            =   8.7315470589671E-07
(PID.TID 0000.0001) %MON dynstat_vvel_max             =   1.5728713329993E-02
(PID.TID 0000.0001) %MON dynstat_vvel_min             =  -6.6935982937402E-03
(PID.TID 0000.0001) %MON dynstat_vvel_mean            =   1.5605122321346E-05
(PID.TID 0000.0001) %MON dynstat_vvel_sd              =   3.6845587838247E-04
(PID.TID 0000.0001) %MON dynstat_vvel_del2            =   7.3708959186072E-07
(PID.TID 0000.0001) %MON dynstat_wvel_max             =   7.7459292414895E-04
(PID.TID 0000.0001) %MON dynstat_wvel_min             =  -7.5681343052267E-04
(PID.TID 0000.0001) %MON dynstat_wvel_mean            =   7.3690901881420E-09
(PID.TID 0000.0001) %MON dynstat_wvel_sd              =   1.6531046240972E-05
(PID.TID 0000.0001) %MON dynstat_wvel_del2            =   7.0487833228459E-08
(PID.TID 0000.0001) %MON dynstat_theta_max            =   1.2000000000000E+00
(PID.TID 0000.0001) %MON dynstat_theta_min            =  -1.0000000000000E+00
(PID.TID 0000.0001) %MON dynstat_theta_mean           =   5.6878780525896E-01
(PID.TID 0000.0001) %MON dynstat_theta_sd             =   8.6841341277900E-01
(PID.TID 0000.0001) %MON dynstat_theta_del2           =   2.3508993565688E-06
(PID.TID 0000.0001) %MON dynstat_salt_max             =   3.4700000000000E+01
(PID.TID 0000.0001) %MON dynstat_salt_min             =   3.4000000000000E+01
(PID.TID 0000.0001) %MON dynstat_salt_mean            =   3.4499129298828E+01
(PID.TID 0000.0001) %MON dynstat_salt_sd              =   2.7630233323442E-01
(PID.TID 0000.0001) %MON dynstat_salt_del2            =   9.2491154583396E-07
(PID.TID 0000.0001) %MON advcfl_uvel_max              =   1.9672665706992E-03
(PID.TID 0000.0001) %MON advcfl_vvel_max              =   1.5728713329993E-03
(PID.TID 0000.0001) %MON advcfl_wvel_max              =   3.8729646207448E-03
(PID.TID 0000.0001) %MON advcfl_W_hf_max              =   3.8729646207448E-03
(PID.TID 0000.0001) %MON pe_b_mean                    =  -8.3096609463505E-01
(PID.TID 0000.0001) %MON ke_max                       =   1.3265780468580E-04
(PID.TID 0000.0001) %MON ke_mean                      =   2.3583649230373E-07
(PID.TID 0000.0001) %MON ke_vol                       =   4.2724840948808E+12
(PID.TID 0000.0001) // =======================================================
(PID.TID 0000.0001) // End MONITOR dynamic field statistics
(PID.TID 0000.0001) // =======================================================
(PID.TID 0000.0001) // =======================================================
(PID.TID 0000.0001) // Begin OBCS MONITOR field statistics
(PID.TID 0000.0001) // =======================================================
(PID.TID 0000.0001) %MON obc_N_vVel_max               =   1.5302090439727E-05
(PID.TID 0000.0001) %MON obc_N_vVel_min               =   1.5302090439726E-05
(PID.TID 0000.0001) %MON obc_N_vVel_mean              =   1.5302090439727E-05
(PID.TID 0000.0001) %MON obc_N_vVel_sd                =  -6.1521558058631E-24
(PID.TID 0000.0001) %MON obc_N_vVel_Int               =   1.0099379690220E+03
(PID.TID 0000.0001) // =======================================================
(PID.TID 0000.0001) // End OBCS MONITOR field statistics
(PID.TID 0000.0001) // =======================================================
 cg2d: Sum(rhs),rhsMax =   4.51500557607050E+00  2.99929830863703E+02
(PID.TID 0000.0001)      cg2d_init_res =   6.97791710205755E-06
(PID.TID 0000.0001)      cg2d_iters(min,last) =      -1      81
(PID.TID 0000.0001)      cg2d_last_res =   9.86776607550003E-12
(PID.TID 0000.0001) // =======================================================
(PID.TID 0000.0001) // Begin MONITOR dynamic field statistics
(PID.TID 0000.0001) // =======================================================
(PID.TID 0000.0001) %MON time_tsnumber                =                   991
(PID.TID 0000.0001) %MON time_secondsf                =   9.9100000000000E+04
(PID.TID 0000.0001) %MON dynstat_eta_max              =   5.7957902945330E+00
(PID.TID 0000.0001) %MON dynstat_eta_min              =  -1.4199007987750E+01
(PID.TID 0000.0001) %MON dynstat_eta_mean             =  -2.5077497384806E+00
(PID.TID 0000.0001) %MON dynstat_eta_sd               =   4.9512112551926E+00
(PID.TID 0000.0001) %MON dynstat_eta_del2             =   2.0714900638859E-01
(PID.TID 0000.0001) %MON dynstat_uvel_max             =   4.4552752422256E-03
(PID.TID 0000.0001) %MON dynstat_uvel_min             =  -1.9720355093174E-02
(PID.TID 0000.0001) %MON dynstat_uvel_mean            =  -1.1528400412670E-07
(PID.TID 0000.0001) %MON dynstat_uvel_sd              =   5.8670756587830E-04
(PID.TID 0000.0001) %MON dynstat_uvel_del2            =   8.7514080206078E-07
(PID.TID 0000.0001) %MON dynstat_vvel_max             =   1.5768403487602E-02
(PID.TID 0000.0001) %MON dynstat_vvel_min             =  -6.7055770871551E-03
(PID.TID 0000.0001) %MON dynstat_vvel_mean            =   1.5590207451534E-05
(PID.TID 0000.0001) %MON dynstat_vvel_sd              =   3.6915682964412E-04
(PID.TID 0000.0001) %MON dynstat_vvel_del2            =   7.3830625422258E-07
(PID.TID 0000.0001) %MON dynstat_wvel_max             =   7.7673591746657E-04
(PID.TID 0000.0001) %MON dynstat_wvel_min             =  -7.5882619143099E-04
(PID.TID 0000.0001) %MON dynstat_wvel_mean            =   7.3197282036842E-09
(PID.TID 0000.0001) %MON dynstat_wvel_sd              =   1.6372739396648E-05
(PID.TID 0000.0001) %MON dynstat_wvel_del2            =   7.0161298680809E-08
(PID.TID 0000.0001) %MON dynstat_theta_max            =   1.2000000000000E+00
(PID.TID 0000.0001) %MON dynstat_theta_min            =  -1.0000000000000E+00
(PID.TID 0000.0001) %MON dynstat_theta_mean           =   5.6878706580511E-01
(PID.TID 0000.0001) %MON dynstat_theta_sd             =   8.6841301220469E-01
(PID.TID 0000.0001) %MON dynstat_theta_del2           =   2.3559602230380E-06
(PID.TID 0000.0001) %MON dynstat_salt_max             =   3.4700000000000E+01
(PID.TID 0000.0001) %MON dynstat_salt_min             =   3.4000000000000E+01
(PID.TID 0000.0001) %MON dynstat_salt_mean            =   3.4499129002999E+01
(PID.TID 0000.0001) %MON dynstat_salt_sd              =   2.7630217934949E-01
(PID.TID 0000.0001) %MON dynstat_salt_del2            =   9.2689562847158E-07
(PID.TID 0000.0001) %MON advcfl_uvel_max              =   1.9720355093174E-03
(PID.TID 0000.0001) %MON advcfl_vvel_max              =   1.5768403487602E-03
(PID.TID 0000.0001) %MON advcfl_wvel_max              =   3.8836795873328E-03
(PID.TID 0000.0001) %MON advcfl_W_hf_max              =   3.8836795873328E-03
(PID.TID 0000.0001) %MON pe_b_mean                    =  -8.3096894312188E-01
(PID.TID 0000.0001) %MON ke_max                       =   1.3344779099550E-04
(PID.TID 0000.0001) %MON ke_mean                      =   2.3695607687847E-07
(PID.TID 0000.0001) %MON ke_vol                       =   4.2724840306437E+12
(PID.TID 0000.0001) // =======================================================
(PID.TID 0000.0001) // End MONITOR dynamic field statistics
(PID.TID 0000.0001) // =======================================================
(PID.TID 0000.0001) // =======================================================
(PID.TID 0000.0001) // Begin OBCS MONITOR field statistics
(PID.TID 0000.0001) // =======================================================
(PID.TID 0000.0001) %MON obc_N_vVel_max               =   1.5291059825287E-05
(PID.TID 0000.0001) %MON obc_N_vVel_min               =   1.5291059825287E-05
(PID.TID 0000.0001) %MON obc_N_vVel_mean              =   1.5291059825287E-05
(PID.TID 0000.0001) %MON obc_N_vVel_sd                =  -6.0487582292940E-24
(PID.TID 0000.0001) %MON obc_N_vVel_Int               =   1.0092099484690E+03
(PID.TID 0000.0001) // =======================================================
(PID.TID 0000.0001) // End OBCS MONITOR field statistics
(PID.TID 0000.0001) // =======================================================
 cg2d: Sum(rhs),rhsMax =   4.51502373862097E+00  2.99929911291585E+02
(PID.TID 0000.0001)      cg2d_init_res =   6.94866580201399E-06
(PID.TID 0000.0001)      cg2d_iters(min,last) =      -1      81
(PID.TID 0000.0001)      cg2d_last_res =   9.86675995941417E-12
(PID.TID 0000.0001) // =======================================================
(PID.TID 0000.0001) // Begin MONITOR dynamic field statistics
(PID.TID 0000.0001) // =======================================================
(PID.TID 0000.0001) %MON time_tsnumber                =                   992
(PID.TID 0000.0001) %MON time_secondsf                =   9.9200000000000E+04
(PID.TID 0000.0001) %MON dynstat_eta_max              =   5.7957873558316E+00
(PID.TID 0000.0001) %MON dynstat_eta_min              =  -1.4199030321028E+01
(PID.TID 0000.0001) %MON dynstat_eta_mean             =  -2.5077604988963E+00
(PID.TID 0000.0001) %MON dynstat_eta_sd               =   4.9512150406473E+00
(PID.TID 0000.0001) %MON dynstat_eta_del2             =   2.0714903289935E-01
(PID.TID 0000.0001) %MON dynstat_uvel_max             =   4.4667274757479E-03
(PID.TID 0000.0001) %MON dynstat_uvel_min             =  -1.9768109277003E-02
(PID.TID 0000.0001) %MON dynstat_uvel_mean            =  -1.1508030695380E-07
(PID.TID 0000.0001) %MON dynstat_uvel_sd              =   5.8821034142649E-04
(PID.TID 0000.0001) %MON dynstat_uvel_del2            =   8.7713177645474E-07
(PID.TID 0000.0001) %MON dynstat_vvel_max             =   1.5808154270363E-02
(PID.TID 0000.0001) %MON dynstat_vvel_min             =  -6.7175695570549E-03
(PID.TID 0000.0001) %MON dynstat_vvel_mean            =   1.5570924782687E-05
(PID.TID 0000.0001) %MON dynstat_vvel_sd              =   3.6986627767378E-04
(PID.TID 0000.0001) %MON dynstat_vvel_del2            =   7.3960059404577E-07
(PID.TID 0000.0001) %MON dynstat_wvel_max             =   7.7888302417282E-04
(PID.TID 0000.0001) %MON dynstat_wvel_min             =  -7.6084288938148E-04
(PID.TID 0000.0001) %MON dynstat_wvel_mean            =   7.2666694972992E-09
(PID.TID 0000.0001) %MON dynstat_wvel_sd              =   1.6227976334790E-05
(PID.TID 0000.0001) %MON dynstat_wvel_del2            =   6.9885528882640E-08
(PID.TID 0000.0001) %MON dynstat_theta_max            =   1.2000000000000E+00
(PID.TID 0000.0001) %MON dynstat_theta_min            =  -1.0000000000000E+00
(PID.TID 0000.0001) %MON dynstat_theta_mean           =   5.6878632483019E-01
(PID.TID 0000.0001) %MON dynstat_theta_sd             =   8.6841261087739E-01
(PID.TID 0000.0001) %MON dynstat_theta_del2           =   2.3609564582690E-06
(PID.TID 0000.0001) %MON dynstat_salt_max             =   3.4700000000000E+01
(PID.TID 0000.0001) %MON dynstat_salt_min             =   3.4000000000000E+01
(PID.TID 0000.0001) %MON dynstat_salt_mean            =   3.4499128706564E+01
(PID.TID 0000.0001) %MON dynstat_salt_sd              =   2.7630202516860E-01
(PID.TID 0000.0001) %MON dynstat_salt_del2            =   9.2886538850848E-07
(PID.TID 0000.0001) %MON advcfl_uvel_max              =   1.9768109277003E-03
(PID.TID 0000.0001) %MON advcfl_vvel_max              =   1.5808154270363E-03
(PID.TID 0000.0001) %MON advcfl_wvel_max              =   3.8944151208641E-03
(PID.TID 0000.0001) %MON advcfl_W_hf_max              =   3.8944151208641E-03
(PID.TID 0000.0001) %MON pe_b_mean                    =  -8.3097178199387E-01
(PID.TID 0000.0001) %MON ke_max                       =   1.3424188319231E-04
(PID.TID 0000.0001) %MON ke_mean                      =   2.3808323342170E-07
(PID.TID 0000.0001) %MON ke_vol                       =   4.2724839665534E+12
(PID.TID 0000.0001) // =======================================================
(PID.TID 0000.0001) // End MONITOR dynamic field statistics
(PID.TID 0000.0001) // =======================================================
(PID.TID 0000.0001) // =======================================================
(PID.TID 0000.0001) // Begin OBCS MONITOR field statistics
(PID.TID 0000.0001) // =======================================================
(PID.TID 0000.0001) %MON obc_N_vVel_max               =   1.5275990927608E-05
(PID.TID 0000.0001) %MON obc_N_vVel_min               =   1.5275990927608E-05
(PID.TID 0000.0001) %MON obc_N_vVel_mean              =   1.5275990927608E-05
(PID.TID 0000.0001) %MON obc_N_vVel_sd                =  -3.9291079096269E-24
(PID.TID 0000.0001) %MON obc_N_vVel_Int               =   1.0082154012221E+03
(PID.TID 0000.0001) // =======================================================
(PID.TID 0000.0001) // End OBCS MONITOR field statistics
(PID.TID 0000.0001) // =======================================================
 cg2d: Sum(rhs),rhsMax =   4.51504186440528E+00  2.99929990145262E+02
(PID.TID 0000.0001)      cg2d_init_res =   6.91653918680502E-06
(PID.TID 0000.0001)      cg2d_iters(min,last) =      -1      81
(PID.TID 0000.0001)      cg2d_last_res =   9.86660102384490E-12
(PID.TID 0000.0001) // =======================================================
(PID.TID 0000.0001) // Begin MONITOR dynamic field statistics
(PID.TID 0000.0001) // =======================================================
(PID.TID 0000.0001) %MON time_tsnumber                =                   993
(PID.TID 0000.0001) %MON time_secondsf                =   9.9300000000000E+04
(PID.TID 0000.0001) %MON dynstat_eta_max              =   5.7957845075353E+00
(PID.TID 0000.0001) %MON dynstat_eta_min              =  -1.4199052600528E+01
(PID.TID 0000.0001) %MON dynstat_eta_mean             =  -2.5077712257343E+00
(PID.TID 0000.0001) %MON dynstat_eta_sd               =   4.9512188121335E+00
(PID.TID 0000.0001) %MON dynstat_eta_del2             =   2.0714905944841E-01
(PID.TID 0000.0001) %MON dynstat_uvel_max             =   4.4782031572801E-03
(PID.TID 0000.0001) %MON dynstat_uvel_min             =  -1.9815928180059E-02
(PID.TID 0000.0001) %MON dynstat_uvel_mean            =  -1.1488597708480E-07
(PID.TID 0000.0001) %MON dynstat_uvel_sd              =   5.8971621695881E-04
(PID.TID 0000.0001) %MON dynstat_uvel_del2            =   8.7912757890725E-07
(PID.TID 0000.0001) %MON dynstat_vvel_max             =   1.5847965601733E-02
(PID.TID 0000.0001) %MON dynstat_vvel_min             =  -6.7295756910877E-03
(PID.TID 0000.0001) %MON dynstat_vvel_mean            =   1.5547408542208E-05
(PID.TID 0000.0001) %MON dynstat_vvel_sd              =   3.7058600187551E-04
(PID.TID 0000.0001) %MON dynstat_vvel_del2            =   7.4097838810679E-07
(PID.TID 0000.0001) %MON dynstat_wvel_max             =   7.8103424355359E-04
(PID.TID 0000.0001) %MON dynstat_wvel_min             =  -7.6286352411813E-04
(PID.TID 0000.0001) %MON dynstat_wvel_mean            =   7.2103259625109E-09
(PID.TID 0000.0001) %MON dynstat_wvel_sd              =   1.6102972584526E-05
(PID.TID 0000.0001) %MON dynstat_wvel_del2            =   6.9682439229056E-08
(PID.TID 0000.0001) %MON dynstat_theta_max            =   1.2000000000000E+00
(PID.TID 0000.0001) %MON dynstat_theta_min            =  -1.0000000000000E+00
(PID.TID 0000.0001) %MON dynstat_theta_mean           =   5.6878558233044E-01
(PID.TID 0000.0001) %MON dynstat_theta_sd             =   8.6841220880110E-01
(PID.TID 0000.0001) %MON dynstat_theta_del2           =   2.3658793306719E-06
(PID.TID 0000.0001) %MON dynstat_salt_max             =   3.4700000000000E+01
(PID.TID 0000.0001) %MON dynstat_salt_min             =   3.4000000000000E+01
(PID.TID 0000.0001) %MON dynstat_salt_mean            =   3.4499128409521E+01
(PID.TID 0000.0001) %MON dynstat_salt_sd              =   2.7630187069297E-01
(PID.TID 0000.0001) %MON dynstat_salt_del2            =   9.3081867033897E-07
(PID.TID 0000.0001) %MON advcfl_uvel_max              =   1.9815928180059E-03
(PID.TID 0000.0001) %MON advcfl_vvel_max              =   1.5847965601733E-03
(PID.TID 0000.0001) %MON advcfl_wvel_max              =   3.9051712177679E-03
(PID.TID 0000.0001) %MON advcfl_W_hf_max              =   3.9051712177679E-03
(PID.TID 0000.0001) %MON pe_b_mean                    =  -8.3097461017292E-01
(PID.TID 0000.0001) %MON ke_max                       =   1.3504009869343E-04
(PID.TID 0000.0001) %MON ke_mean                      =   2.3921864154759E-07
(PID.TID 0000.0001) %MON ke_vol                       =   4.2724839026366E+12
(PID.TID 0000.0001) // =======================================================
(PID.TID 0000.0001) // End MONITOR dynamic field statistics
(PID.TID 0000.0001) // =======================================================
(PID.TID 0000.0001) // =======================================================
(PID.TID 0000.0001) // Begin OBCS MONITOR field statistics
(PID.TID 0000.0001) // =======================================================
(PID.TID 0000.0001) %MON obc_N_vVel_max               =   1.5256986235559E-05
(PID.TID 0000.0001) %MON obc_N_vVel_min               =   1.5256986235559E-05
(PID.TID 0000.0001) %MON obc_N_vVel_mean              =   1.5256986235559E-05
(PID.TID 0000.0001) %MON obc_N_vVel_sd                =  -6.3072521707168E-24
(PID.TID 0000.0001) %MON obc_N_vVel_Int               =   1.0069610915469E+03
(PID.TID 0000.0001) // =======================================================
(PID.TID 0000.0001) // End OBCS MONITOR field statistics
(PID.TID 0000.0001) // =======================================================
 cg2d: Sum(rhs),rhsMax =   4.51505994658352E+00  2.99930067373201E+02
(PID.TID 0000.0001)      cg2d_init_res =   6.88191567590100E-06
(PID.TID 0000.0001)      cg2d_iters(min,last) =      -1      81
(PID.TID 0000.0001)      cg2d_last_res =   9.86738252129217E-12
(PID.TID 0000.0001) // =======================================================
(PID.TID 0000.0001) // Begin MONITOR dynamic field statistics
(PID.TID 0000.0001) // =======================================================
(PID.TID 0000.0001) %MON time_tsnumber                =                   994
(PID.TID 0000.0001) %MON time_secondsf                =   9.9400000000000E+04
(PID.TID 0000.0001) %MON dynstat_eta_max              =   5.7957817569138E+00
(PID.TID 0000.0001) %MON dynstat_eta_min              =  -1.4199074819000E+01
(PID.TID 0000.0001) %MON dynstat_eta_mean             =  -2.5077819147645E+00
(PID.TID 0000.0001) %MON dynstat_eta_sd               =   4.9512225684027E+00
(PID.TID 0000.0001) %MON dynstat_eta_del2             =   2.0714908603452E-01
(PID.TID 0000.0001) %MON dynstat_uvel_max             =   4.4897022949861E-03
(PID.TID 0000.0001) %MON dynstat_uvel_min             =  -1.9863811725539E-02
(PID.TID 0000.0001) %MON dynstat_uvel_mean            =  -1.1470258143334E-07
(PID.TID 0000.0001) %MON dynstat_uvel_sd              =   5.9122517064469E-04
(PID.TID 0000.0001) %MON dynstat_uvel_del2            =   8.8112816829350E-07
(PID.TID 0000.0001) %MON dynstat_vvel_max             =   1.5887837411037E-02
(PID.TID 0000.0001) %MON dynstat_vvel_min             =  -6.7415954732191E-03
(PID.TID 0000.0001) %MON dynstat_vvel_mean            =   1.5519829015089E-05
(PID.TID 0000.0001) %MON dynstat_vvel_sd              =   3.7131752872436E-04
(PID.TID 0000.0001) %MON dynstat_vvel_del2            =   7.4244423865027E-07
(PID.TID 0000.0001) %MON dynstat_wvel_max             =   7.8318957479651E-04
(PID.TID 0000.0001) %MON dynstat_wvel_min             =  -7.6488809540651E-04
(PID.TID 0000.0001) %MON dynstat_wvel_mean            =   7.1511448437546E-09
(PID.TID 0000.0001) %MON dynstat_wvel_sd              =   1.6003773164176E-05
(PID.TID 0000.0001) %MON dynstat_wvel_del2            =   6.9575788188700E-08
(PID.TID 0000.0001) %MON dynstat_theta_max            =   1.2000000000000E+00
(PID.TID 0000.0001) %MON dynstat_theta_min            =  -1.0000000000000E+00
(PID.TID 0000.0001) %MON dynstat_theta_mean           =   5.6878483830267E-01
(PID.TID 0000.0001) %MON dynstat_theta_sd             =   8.6841180598061E-01
(PID.TID 0000.0001) %MON dynstat_theta_del2           =   2.3707216704041E-06
(PID.TID 0000.0001) %MON dynstat_salt_max             =   3.4700000000000E+01
(PID.TID 0000.0001) %MON dynstat_salt_min             =   3.4000000000000E+01
(PID.TID 0000.0001) %MON dynstat_salt_mean            =   3.4499128111869E+01
(PID.TID 0000.0001) %MON dynstat_salt_sd              =   2.7630171592400E-01
(PID.TID 0000.0001) %MON dynstat_salt_del2            =   9.3275372352618E-07
(PID.TID 0000.0001) %MON advcfl_uvel_max              =   1.9863811725539E-03
(PID.TID 0000.0001) %MON advcfl_vvel_max              =   1.5887837411037E-03
(PID.TID 0000.0001) %MON advcfl_wvel_max              =   3.9159478739825E-03
(PID.TID 0000.0001) %MON advcfl_W_hf_max              =   3.9159478739825E-03
(PID.TID 0000.0001) %MON pe_b_mean                    =  -8.3097742662751E-01
(PID.TID 0000.0001) %MON ke_max                       =   1.3584245499554E-04
(PID.TID 0000.0001) %MON ke_mean                      =   2.4036289419791E-07
(PID.TID 0000.0001) %MON ke_vol                       =   4.2724838389191E+12
(PID.TID 0000.0001) // =======================================================
(PID.TID 0000.0001) // End MONITOR dynamic field statistics
(PID.TID 0000.0001) // =======================================================
(PID.TID 0000.0001) // =======================================================
(PID.TID 0000.0001) // Begin OBCS MONITOR field statistics
(PID.TID 0000.0001) // =======================================================
(PID.TID 0000.0001) %MON obc_N_vVel_max               =   1.5234181180245E-05
(PID.TID 0000.0001) %MON obc_N_vVel_min               =   1.5234181180245E-05
(PID.TID 0000.0001) %MON obc_N_vVel_mean              =   1.5234181180245E-05
(PID.TID 0000.0001) %MON obc_N_vVel_sd                =   4.4931477635531E-12
(PID.TID 0000.0001) %MON obc_N_vVel_Int               =   1.0054559578961E+03
(PID.TID 0000.0001) // =======================================================
(PID.TID 0000.0001) // End OBCS MONITOR field statistics
(PID.TID 0000.0001) // =======================================================
 cg2d: Sum(rhs),rhsMax =   4.51507797847055E+00  2.99930142935954E+02
(PID.TID 0000.0001)      cg2d_init_res =   6.84528572371466E-06
(PID.TID 0000.0001)      cg2d_iters(min,last) =      -1      81
(PID.TID 0000.0001)      cg2d_last_res =   9.86940166510102E-12
(PID.TID 0000.0001) // =======================================================
(PID.TID 0000.0001) // Begin MONITOR dynamic field statistics
(PID.TID 0000.0001) // =======================================================
(PID.TID 0000.0001) %MON time_tsnumber                =                   995
(PID.TID 0000.0001) %MON time_secondsf                =   9.9500000000000E+04
(PID.TID 0000.0001) %MON dynstat_eta_max              =   5.7957791108809E+00
(PID.TID 0000.0001) %MON dynstat_eta_min              =  -1.4199096969558E+01
(PID.TID 0000.0001) %MON dynstat_eta_mean             =  -2.5077925619438E+00
(PID.TID 0000.0001) %MON dynstat_eta_sd               =   4.9512263083024E+00
(PID.TID 0000.0001) %MON dynstat_eta_del2             =   2.0714911265686E-01
(PID.TID 0000.0001) %MON dynstat_uvel_max             =   4.5012248948311E-03
(PID.TID 0000.0001) %MON dynstat_uvel_min             =  -1.9911759838262E-02
(PID.TID 0000.0001) %MON dynstat_uvel_mean            =  -1.1453163963471E-07
(PID.TID 0000.0001) %MON dynstat_uvel_sd              =   5.9273718339997E-04
(PID.TID 0000.0001) %MON dynstat_uvel_del2            =   8.8313351708317E-07
(PID.TID 0000.0001) %MON dynstat_vvel_max             =   1.5927769633392E-02
(PID.TID 0000.0001) %MON dynstat_vvel_min             =  -6.7536288837049E-03
(PID.TID 0000.0001) %MON dynstat_vvel_mean            =   1.5488391842940E-05
(PID.TID 0000.0001) %MON dynstat_vvel_sd              =   3.7206206890518E-04
(PID.TID 0000.0001) %MON dynstat_vvel_del2            =   7.4400112188948E-07
(PID.TID 0000.0001) %MON dynstat_wvel_max             =   7.8534901702532E-04
(PID.TID 0000.0001) %MON dynstat_wvel_min             =  -7.6691660328109E-04
(PID.TID 0000.0001) %MON dynstat_wvel_mean            =   7.0896029772795E-09
(PID.TID 0000.0001) %MON dynstat_wvel_sd              =   1.5935874935661E-05
(PID.TID 0000.0001) %MON dynstat_wvel_del2            =   6.9589074608299E-08
(PID.TID 0000.0001) %MON dynstat_theta_max            =   1.2000000000000E+00
(PID.TID 0000.0001) %MON dynstat_theta_min            =  -1.0000000000000E+00
(PID.TID 0000.0001) %MON dynstat_theta_mean           =   5.6878409274440E-01
(PID.TID 0000.0001) %MON dynstat_theta_sd             =   8.6841140241720E-01
(PID.TID 0000.0001) %MON dynstat_theta_del2           =   2.3754783597664E-06
(PID.TID 0000.0001) %MON dynstat_salt_max             =   3.4700000000000E+01
(PID.TID 0000.0001) %MON dynstat_salt_min             =   3.4000000000000E+01
(PID.TID 0000.0001) %MON dynstat_salt_mean            =   3.4499127813607E+01
(PID.TID 0000.0001) %MON dynstat_salt_sd              =   2.7630156086210E-01
(PID.TID 0000.0001) %MON dynstat_salt_del2            =   9.3466931237309E-07
(PID.TID 0000.0001) %MON advcfl_uvel_max              =   1.9911759838262E-03
(PID.TID 0000.0001) %MON advcfl_vvel_max              =   1.5927769633392E-03
(PID.TID 0000.0001) %MON advcfl_wvel_max              =   3.9267450851266E-03
(PID.TID 0000.0001) %MON advcfl_W_hf_max              =   3.9267450851266E-03
(PID.TID 0000.0001) %MON pe_b_mean                    =  -8.3098023038183E-01
(PID.TID 0000.0001) %MON ke_max                       =   1.3664896967342E-04
(PID.TID 0000.0001) %MON ke_mean                      =   2.4151647375171E-07
(PID.TID 0000.0001) %MON ke_vol                       =   4.2724837754263E+12
(PID.TID 0000.0001) // =======================================================
(PID.TID 0000.0001) // End MONITOR dynamic field statistics
(PID.TID 0000.0001) // =======================================================
(PID.TID 0000.0001) // =======================================================
(PID.TID 0000.0001) // Begin OBCS MONITOR field statistics
(PID.TID 0000.0001) // =======================================================
(PID.TID 0000.0001) %MON obc_N_vVel_max               =   1.5207743809773E-05
(PID.TID 0000.0001) %MON obc_N_vVel_min               =   1.5207743809772E-05
(PID.TID 0000.0001) %MON obc_N_vVel_mean              =   1.5207743809773E-05
(PID.TID 0000.0001) %MON obc_N_vVel_sd                =  -5.9195112585826E-24
(PID.TID 0000.0001) %MON obc_N_vVel_Int               =   1.0037110914450E+03
(PID.TID 0000.0001) // =======================================================
(PID.TID 0000.0001) // End OBCS MONITOR field statistics
(PID.TID 0000.0001) // =======================================================
 cg2d: Sum(rhs),rhsMax =   4.51509595359196E+00  2.99930216806557E+02
(PID.TID 0000.0001)      cg2d_init_res =   6.80712852838281E-06
(PID.TID 0000.0001)      cg2d_iters(min,last) =      -1      81
(PID.TID 0000.0001)      cg2d_last_res =   9.87261973673180E-12
(PID.TID 0000.0001) // =======================================================
(PID.TID 0000.0001) // Begin MONITOR dynamic field statistics
(PID.TID 0000.0001) // =======================================================
(PID.TID 0000.0001) %MON time_tsnumber                =                   996
(PID.TID 0000.0001) %MON time_secondsf                =   9.9600000000000E+04
(PID.TID 0000.0001) %MON dynstat_eta_max              =   5.7957765758397E+00
(PID.TID 0000.0001) %MON dynstat_eta_min              =  -1.4199119045737E+01
(PID.TID 0000.0001) %MON dynstat_eta_mean             =  -2.5078031634504E+00
(PID.TID 0000.0001) %MON dynstat_eta_sd               =   4.9512300307795E+00
(PID.TID 0000.0001) %MON dynstat_eta_del2             =   2.0714913931454E-01
(PID.TID 0000.0001) %MON dynstat_uvel_max             =   4.5127709609041E-03
(PID.TID 0000.0001) %MON dynstat_uvel_min             =  -1.9959772443968E-02
(PID.TID 0000.0001) %MON dynstat_uvel_mean            =  -1.1437460013846E-07
(PID.TID 0000.0001) %MON dynstat_uvel_sd              =   5.9425223916523E-04
(PID.TID 0000.0001) %MON dynstat_uvel_del2            =   8.8514361080813E-07
(PID.TID 0000.0001) %MON dynstat_vvel_max             =   1.5967762209522E-02
(PID.TID 0000.0001) %MON dynstat_vvel_min             =  -6.7656758989596E-03
(PID.TID 0000.0001) %MON dynstat_vvel_mean            =   1.5453336971943E-05
(PID.TID 0000.0001) %MON dynstat_vvel_sd              =   3.7282046245460E-04
(PID.TID 0000.0001) %MON dynstat_vvel_del2            =   7.4564992900894E-07
(PID.TID 0000.0001) %MON dynstat_wvel_max             =   7.8751256928166E-04
(PID.TID 0000.0001) %MON dynstat_wvel_min             =  -7.6894904801879E-04
(PID.TID 0000.0001) %MON dynstat_wvel_mean            =   7.0262049520836E-09
(PID.TID 0000.0001) %MON dynstat_wvel_sd              =   1.5903823011480E-05
(PID.TID 0000.0001) %MON dynstat_wvel_del2            =   6.9743102052180E-08
(PID.TID 0000.0001) %MON dynstat_theta_max            =   1.2000000000000E+00
(PID.TID 0000.0001) %MON dynstat_theta_min            =  -1.0000000000000E+00
(PID.TID 0000.0001) %MON dynstat_theta_mean           =   5.6878334565374E-01
(PID.TID 0000.0001) %MON dynstat_theta_sd             =   8.6841099810548E-01
(PID.TID 0000.0001) %MON dynstat_theta_del2           =   2.3801469192223E-06
(PID.TID 0000.0001) %MON dynstat_salt_max             =   3.4700000000000E+01
(PID.TID 0000.0001) %MON dynstat_salt_min             =   3.4000000000000E+01
(PID.TID 0000.0001) %MON dynstat_salt_mean            =   3.4499127514734E+01
(PID.TID 0000.0001) %MON dynstat_salt_sd              =   2.7630140550554E-01
(PID.TID 0000.0001) %MON dynstat_salt_del2            =   9.3656487453538E-07
(PID.TID 0000.0001) %MON advcfl_uvel_max              =   1.9959772443968E-03
(PID.TID 0000.0001) %MON advcfl_vvel_max              =   1.5967762209522E-03
(PID.TID 0000.0001) %MON advcfl_wvel_max              =   3.9375628464083E-03
(PID.TID 0000.0001) %MON advcfl_W_hf_max              =   3.9375628464083E-03
(PID.TID 0000.0001) %MON pe_b_mean                    =  -8.3098302052415E-01
(PID.TID 0000.0001) %MON ke_max                       =   1.3745966037496E-04
(PID.TID 0000.0001) %MON ke_mean                      =   2.4267973072117E-07
(PID.TID 0000.0001) %MON ke_vol                       =   4.2724837121821E+12
(PID.TID 0000.0001) // =======================================================
(PID.TID 0000.0001) // End MONITOR dynamic field statistics
(PID.TID 0000.0001) // =======================================================
(PID.TID 0000.0001) // =======================================================
(PID.TID 0000.0001) // Begin OBCS MONITOR field statistics
(PID.TID 0000.0001) // =======================================================
(PID.TID 0000.0001) %MON obc_N_vVel_max               =   1.5177873901453E-05
(PID.TID 0000.0001) %MON obc_N_vVel_min               =   1.5177873901453E-05
(PID.TID 0000.0001) %MON obc_N_vVel_mean              =   1.5177873901453E-05
(PID.TID 0000.0001) %MON obc_N_vVel_sd                =   6.6290248183183E-13
(PID.TID 0000.0001) %MON obc_N_vVel_Int               =   1.0017396774959E+03
(PID.TID 0000.0001) // =======================================================
(PID.TID 0000.0001) // End OBCS MONITOR field statistics
(PID.TID 0000.0001) // =======================================================
 cg2d: Sum(rhs),rhsMax =   4.51511386573925E+00  2.99930288970985E+02
(PID.TID 0000.0001)      cg2d_init_res =   6.76796905852822E-06
(PID.TID 0000.0001)      cg2d_iters(min,last) =      -1      81
(PID.TID 0000.0001)      cg2d_last_res =   9.87705725296963E-12
(PID.TID 0000.0001) // =======================================================
(PID.TID 0000.0001) // Begin MONITOR dynamic field statistics
(PID.TID 0000.0001) // =======================================================
(PID.TID 0000.0001) %MON time_tsnumber                =                   997
(PID.TID 0000.0001) %MON time_secondsf                =   9.9700000000000E+04
(PID.TID 0000.0001) %MON dynstat_eta_max              =   5.7957741577458E+00
(PID.TID 0000.0001) %MON dynstat_eta_min              =  -1.4199141041567E+01
(PID.TID 0000.0001) %MON dynstat_eta_mean             =  -2.5078137157187E+00
(PID.TID 0000.0001) %MON dynstat_eta_sd               =   4.9512337348929E+00
(PID.TID 0000.0001) %MON dynstat_eta_del2             =   2.0714916600687E-01
(PID.TID 0000.0001) %MON dynstat_uvel_max             =   4.5243404954149E-03
(PID.TID 0000.0001) %MON dynstat_uvel_min             =  -2.0007849469689E-02
(PID.TID 0000.0001) %MON dynstat_uvel_mean            =  -1.1423282560906E-07
(PID.TID 0000.0001) %MON dynstat_uvel_sd              =   5.9577032513308E-04
(PID.TID 0000.0001) %MON dynstat_uvel_del2            =   8.8715844877650E-07
(PID.TID 0000.0001) %MON dynstat_vvel_max             =   1.6007815085731E-02
(PID.TID 0000.0001) %MON dynstat_vvel_min             =  -6.7777364919364E-03
(PID.TID 0000.0001) %MON dynstat_vvel_mean            =   1.5414937291952E-05
(PID.TID 0000.0001) %MON dynstat_vvel_sd              =   3.7359313485965E-04
(PID.TID 0000.0001) %MON dynstat_vvel_del2            =   7.4738905197339E-07
(PID.TID 0000.0001) %MON dynstat_wvel_max             =   7.8968023052246E-04
(PID.TID 0000.0001) %MON dynstat_wvel_min             =  -7.7098543018228E-04
(PID.TID 0000.0001) %MON dynstat_wvel_mean            =   6.9614795209278E-09
(PID.TID 0000.0001) %MON dynstat_wvel_sd              =   1.5910825498725E-05
(PID.TID 0000.0001) %MON dynstat_wvel_del2            =   7.0053497764295E-08
(PID.TID 0000.0001) %MON dynstat_theta_max            =   1.2000000000000E+00
(PID.TID 0000.0001) %MON dynstat_theta_min            =  -1.0000000000000E+00
(PID.TID 0000.0001) %MON dynstat_theta_mean           =   5.6878259702945E-01
(PID.TID 0000.0001) %MON dynstat_theta_sd             =   8.6841059303675E-01
(PID.TID 0000.0001) %MON dynstat_theta_del2           =   2.3847280130310E-06
(PID.TID 0000.0001) %MON dynstat_salt_max             =   3.4700000000000E+01
(PID.TID 0000.0001) %MON dynstat_salt_min             =   3.4000000000000E+01
(PID.TID 0000.0001) %MON dynstat_salt_mean            =   3.4499127215251E+01
(PID.TID 0000.0001) %MON dynstat_salt_sd              =   2.7630124985165E-01
(PID.TID 0000.0001) %MON dynstat_salt_del2            =   9.3844064520195E-07
(PID.TID 0000.0001) %MON advcfl_uvel_max              =   2.0007849469689E-03
(PID.TID 0000.0001) %MON advcfl_vvel_max              =   1.6007815085731E-03
(PID.TID 0000.0001) %MON advcfl_wvel_max              =   3.9484011526123E-03
(PID.TID 0000.0001) %MON advcfl_W_hf_max              =   3.9484011526123E-03
(PID.TID 0000.0001) %MON pe_b_mean                    =  -8.3098579621540E-01
(PID.TID 0000.0001) %MON ke_max                       =   1.3827454482170E-04
(PID.TID 0000.0001) %MON ke_mean                      =   2.4385286620301E-07
(PID.TID 0000.0001) %MON ke_vol                       =   4.2724836492091E+12
(PID.TID 0000.0001) // =======================================================
(PID.TID 0000.0001) // End MONITOR dynamic field statistics
(PID.TID 0000.0001) // =======================================================
(PID.TID 0000.0001) // =======================================================
(PID.TID 0000.0001) // Begin OBCS MONITOR field statistics
(PID.TID 0000.0001) // =======================================================
(PID.TID 0000.0001) %MON obc_N_vVel_max               =   1.5144801865623E-05
(PID.TID 0000.0001) %MON obc_N_vVel_min               =   1.5144801865623E-05
(PID.TID 0000.0001) %MON obc_N_vVel_mean              =   1.5144801865623E-05
(PID.TID 0000.0001) %MON obc_N_vVel_sd                =  -4.4202463983302E-24
(PID.TID 0000.0001) %MON obc_N_vVel_Int               =   9.9955692313109E+02
(PID.TID 0000.0001) // =======================================================
(PID.TID 0000.0001) // End OBCS MONITOR field statistics
(PID.TID 0000.0001) // =======================================================
 cg2d: Sum(rhs),rhsMax =   4.51513170901829E+00  2.99930359428599E+02
(PID.TID 0000.0001)      cg2d_init_res =   6.72833581424378E-06
(PID.TID 0000.0001)      cg2d_iters(min,last) =      -1      81
(PID.TID 0000.0001)      cg2d_last_res =   9.88269727787782E-12
(PID.TID 0000.0001) // =======================================================
(PID.TID 0000.0001) // Begin MONITOR dynamic field statistics
(PID.TID 0000.0001) // =======================================================
(PID.TID 0000.0001) %MON time_tsnumber                =                   998
(PID.TID 0000.0001) %MON time_secondsf                =   9.9800000000000E+04
(PID.TID 0000.0001) %MON dynstat_eta_max              =   5.7957718619890E+00
(PID.TID 0000.0001) %MON dynstat_eta_min              =  -1.4199162951610E+01
(PID.TID 0000.0001) %MON dynstat_eta_mean             =  -2.5078242154691E+00
(PID.TID 0000.0001) %MON dynstat_eta_sd               =   4.9512374198246E+00
(PID.TID 0000.0001) %MON dynstat_eta_del2             =   2.0714919273342E-01
(PID.TID 0000.0001) %MON dynstat_uvel_max             =   4.5359334992234E-03
(PID.TID 0000.0001) %MON dynstat_uvel_min             =  -2.0055990843080E-02
(PID.TID 0000.0001) %MON dynstat_uvel_mean            =  -1.1410757426072E-07
(PID.TID 0000.0001) %MON dynstat_uvel_sd              =   5.9729143190135E-04
(PID.TID 0000.0001) %MON dynstat_uvel_del2            =   8.8917804451929E-07
(PID.TID 0000.0001) %MON dynstat_vvel_max             =   1.6047928213372E-02
(PID.TID 0000.0001) %MON dynstat_vvel_min             =  -6.7898106320490E-03
(PID.TID 0000.0001) %MON dynstat_vvel_mean            =   1.5373496973152E-05
(PID.TID 0000.0001) %MON dynstat_vvel_sd              =   3.7438006731053E-04
(PID.TID 0000.0001) %MON dynstat_vvel_del2            =   7.4921406393641E-07
(PID.TID 0000.0001) %MON dynstat_wvel_max             =   7.9185199963773E-04
(PID.TID 0000.0001) %MON dynstat_wvel_min             =  -7.7302575059229E-04
(PID.TID 0000.0001) %MON dynstat_wvel_mean            =   6.8959752860893E-09
(PID.TID 0000.0001) %MON dynstat_wvel_sd              =   1.5958436808338E-05
(PID.TID 0000.0001) %MON dynstat_wvel_del2            =   7.0528530320339E-08
(PID.TID 0000.0001) %MON dynstat_theta_max            =   1.2000000000000E+00
(PID.TID 0000.0001) %MON dynstat_theta_min            =  -1.0000000000000E+00
(PID.TID 0000.0001) %MON dynstat_theta_mean           =   5.6878184687065E-01
(PID.TID 0000.0001) %MON dynstat_theta_sd             =   8.6841018719562E-01
(PID.TID 0000.0001) %MON dynstat_theta_del2           =   2.3892257537603E-06
(PID.TID 0000.0001) %MON dynstat_salt_max             =   3.4700000000000E+01
(PID.TID 0000.0001) %MON dynstat_salt_min             =   3.4000000000000E+01
(PID.TID 0000.0001) %MON dynstat_salt_mean            =   3.4499126915156E+01
(PID.TID 0000.0001) %MON dynstat_salt_sd              =   2.7630109389540E-01
(PID.TID 0000.0001) %MON dynstat_salt_del2            =   9.4029774306284E-07
(PID.TID 0000.0001) %MON advcfl_uvel_max              =   2.0055990843080E-03
(PID.TID 0000.0001) %MON advcfl_vvel_max              =   1.6047928213372E-03
(PID.TID 0000.0001) %MON advcfl_wvel_max              =   3.9592599981887E-03
(PID.TID 0000.0001) %MON advcfl_W_hf_max              =   3.9592599981887E-03
(PID.TID 0000.0001) %MON pe_b_mean                    =  -8.3098855669667E-01
(PID.TID 0000.0001) %MON ke_max                       =   1.3909364080326E-04
(PID.TID 0000.0001) %MON ke_mean                      =   2.4503591930235E-07
(PID.TID 0000.0001) %MON ke_vol                       =   4.2724835865286E+12
(PID.TID 0000.0001) // =======================================================
(PID.TID 0000.0001) // End MONITOR dynamic field statistics
(PID.TID 0000.0001) // =======================================================
(PID.TID 0000.0001) // =======================================================
(PID.TID 0000.0001) // Begin OBCS MONITOR field statistics
(PID.TID 0000.0001) // =======================================================
(PID.TID 0000.0001) %MON obc_N_vVel_max               =   1.5108787458304E-05
(PID.TID 0000.0001) %MON obc_N_vVel_min               =   1.5108787458303E-05
(PID.TID 0000.0001) %MON obc_N_vVel_mean              =   1.5108787458303E-05
(PID.TID 0000.0001) %MON obc_N_vVel_sd                =   3.6415297877390E-12
(PID.TID 0000.0001) %MON obc_N_vVel_Int               =   9.9717997224802E+02
(PID.TID 0000.0001) // =======================================================
(PID.TID 0000.0001) // End OBCS MONITOR field statistics
(PID.TID 0000.0001) // =======================================================
 cg2d: Sum(rhs),rhsMax =   4.51514947790557E+00  2.99930428192291E+02
(PID.TID 0000.0001)      cg2d_init_res =   6.68874199104802E-06
(PID.TID 0000.0001)      cg2d_iters(min,last) =      -1      81
(PID.TID 0000.0001)      cg2d_last_res =   9.88949936095788E-12
(PID.TID 0000.0001) // =======================================================
(PID.TID 0000.0001) // Begin MONITOR dynamic field statistics
(PID.TID 0000.0001) // =======================================================
(PID.TID 0000.0001) %MON time_tsnumber                =                   999
(PID.TID 0000.0001) %MON time_secondsf                =   9.9900000000000E+04
(PID.TID 0000.0001) %MON dynstat_eta_max              =   5.7957696933477E+00
(PID.TID 0000.0001) %MON dynstat_eta_min              =  -1.4199184771031E+01
(PID.TID 0000.0001) %MON dynstat_eta_mean             =  -2.5078346597415E+00
(PID.TID 0000.0001) %MON dynstat_eta_sd               =   4.9512410848830E+00
(PID.TID 0000.0001) %MON dynstat_eta_del2             =   2.0714921949372E-01
(PID.TID 0000.0001) %MON dynstat_uvel_max             =   4.5475499716900E-03
(PID.TID 0000.0001) %MON dynstat_uvel_min             =  -2.0104196492529E-02
(PID.TID 0000.0001) %MON dynstat_uvel_mean            =  -1.1399998704436E-07
(PID.TID 0000.0001) %MON dynstat_uvel_sd              =   5.9881555353740E-04
(PID.TID 0000.0001) %MON dynstat_uvel_del2            =   8.9120242585068E-07
(PID.TID 0000.0001) %MON dynstat_vvel_max             =   1.6088101548638E-02
(PID.TID 0000.0001) %MON dynstat_vvel_min             =  -6.8018982856799E-03
(PID.TID 0000.0001) %MON dynstat_vvel_mean            =   1.5329349466839E-05
(PID.TID 0000.0001) %MON dynstat_vvel_sd              =   3.7518078364837E-04
(PID.TID 0000.0001) %MON dynstat_vvel_del2            =   7.5111753862643E-07
(PID.TID 0000.0001) %MON dynstat_wvel_max             =   7.9402787543073E-04
(PID.TID 0000.0001) %MON dynstat_wvel_min             =  -7.7507001028216E-04
(PID.TID 0000.0001) %MON dynstat_wvel_mean            =   6.8302553167796E-09
(PID.TID 0000.0001) %MON dynstat_wvel_sd              =   1.6046355296232E-05
(PID.TID 0000.0001) %MON dynstat_wvel_del2            =   7.1167551387008E-08
(PID.TID 0000.0001) %MON dynstat_theta_max            =   1.2000000000000E+00
(PID.TID 0000.0001) %MON dynstat_theta_min            =  -1.0000000000000E+00
(PID.TID 0000.0001) %MON dynstat_theta_mean           =   5.6878109517704E-01
(PID.TID 0000.0001) %MON dynstat_theta_sd             =   8.6840978057184E-01
(PID.TID 0000.0001) %MON dynstat_theta_del2           =   2.3936479983810E-06
(PID.TID 0000.0001) %MON dynstat_salt_max             =   3.4700000000000E+01
(PID.TID 0000.0001) %MON dynstat_salt_min             =   3.4000000000000E+01
(PID.TID 0000.0001) %MON dynstat_salt_mean            =   3.4499126614450E+01
(PID.TID 0000.0001) %MON dynstat_salt_sd              =   2.7630093763344E-01
(PID.TID 0000.0001) %MON dynstat_salt_del2            =   9.4213824289932E-07
(PID.TID 0000.0001) %MON advcfl_uvel_max              =   2.0104196492529E-03
(PID.TID 0000.0001) %MON advcfl_vvel_max              =   1.6088101548638E-03
(PID.TID 0000.0001) %MON advcfl_wvel_max              =   3.9701393771537E-03
(PID.TID 0000.0001) %MON advcfl_W_hf_max              =   3.9701393771537E-03
(PID.TID 0000.0001) %MON pe_b_mean                    =  -8.3099130129654E-01
(PID.TID 0000.0001) %MON ke_max                       =   1.3991696617650E-04
(PID.TID 0000.0001) %MON ke_mean                      =   2.4622876053428E-07
(PID.TID 0000.0001) %MON ke_vol                       =   4.2724835241601E+12
(PID.TID 0000.0001) // =======================================================
(PID.TID 0000.0001) // End MONITOR dynamic field statistics
(PID.TID 0000.0001) // =======================================================
(PID.TID 0000.0001) // =======================================================
(PID.TID 0000.0001) // Begin OBCS MONITOR field statistics
(PID.TID 0000.0001) // =======================================================
(PID.TID 0000.0001) %MON obc_N_vVel_max               =   1.5070118175735E-05
(PID.TID 0000.0001) %MON obc_N_vVel_min               =   1.5070118175735E-05
(PID.TID 0000.0001) %MON obc_N_vVel_mean              =   1.5070118175735E-05
(PID.TID 0000.0001) %MON obc_N_vVel_sd                =   2.3019830145264E-12
(PID.TID 0000.0001) %MON obc_N_vVel_Int               =   9.9462779959850E+02
(PID.TID 0000.0001) // =======================================================
(PID.TID 0000.0001) // End OBCS MONITOR field statistics
(PID.TID 0000.0001) // =======================================================
 cg2d: Sum(rhs),rhsMax =   4.51516716729799E+00  2.99930495288617E+02
(PID.TID 0000.0001)      cg2d_init_res =   6.64966322097850E-06
(PID.TID 0000.0001)      cg2d_iters(min,last) =      -1      81
(PID.TID 0000.0001)      cg2d_last_res =   9.89732984622903E-12
(PID.TID 0000.0001) // =======================================================
(PID.TID 0000.0001) // Begin MONITOR dynamic field statistics
(PID.TID 0000.0001) // =======================================================
(PID.TID 0000.0001) %MON time_tsnumber                =                  1000
(PID.TID 0000.0001) %MON time_secondsf                =   1.0000000000000E+05
(PID.TID 0000.0001) %MON dynstat_eta_max              =   5.7957676559526E+00
(PID.TID 0000.0001) %MON dynstat_eta_min              =  -1.4199206495626E+01
(PID.TID 0000.0001) %MON dynstat_eta_mean             =  -2.5078450459233E+00
(PID.TID 0000.0001) %MON dynstat_eta_sd               =   4.9512447295129E+00
(PID.TID 0000.0001) %MON dynstat_eta_del2             =   2.0714924628742E-01
(PID.TID 0000.0001) %MON dynstat_uvel_max             =   4.5591899110917E-03
(PID.TID 0000.0001) %MON dynstat_uvel_min             =  -2.0152466346826E-02
(PID.TID 0000.0001) %MON dynstat_uvel_mean            =  -1.1391108454880E-07
(PID.TID 0000.0001) %MON dynstat_uvel_sd              =   6.0034268755828E-04
(PID.TID 0000.0001) %MON dynstat_uvel_del2            =   8.9323163444721E-07
(PID.TID 0000.0001) %MON dynstat_vvel_max             =   1.6128335051969E-02
(PID.TID 0000.0001) %MON dynstat_vvel_min             =  -6.8139994161101E-03
(PID.TID 0000.0001) %MON dynstat_vvel_mean            =   1.5282855228850E-05
(PID.TID 0000.0001) %MON dynstat_vvel_sd              =   3.7599435571069E-04
(PID.TID 0000.0001) %MON dynstat_vvel_del2            =   7.5308904189398E-07
(PID.TID 0000.0001) %MON dynstat_wvel_max             =   7.9620785663966E-04
(PID.TID 0000.0001) %MON dynstat_wvel_min             =  -7.7711821055110E-04
(PID.TID 0000.0001) %MON dynstat_wvel_mean            =   6.7648945680876E-09
(PID.TID 0000.0001) %MON dynstat_wvel_sd              =   1.6172366394394E-05
(PID.TID 0000.0001) %MON dynstat_wvel_del2            =   7.1960301521417E-08
(PID.TID 0000.0001) %MON dynstat_theta_max            =   1.2000000000000E+00
(PID.TID 0000.0001) %MON dynstat_theta_min            =  -1.0000000000000E+00
(PID.TID 0000.0001) %MON dynstat_theta_mean           =   5.6878034194879E-01
(PID.TID 0000.0001) %MON dynstat_theta_sd             =   8.6840937315382E-01
(PID.TID 0000.0001) %MON dynstat_theta_del2           =   2.3980062676827E-06
(PID.TID 0000.0001) %MON dynstat_salt_max             =   3.4700000000000E+01
(PID.TID 0000.0001) %MON dynstat_salt_min             =   3.4000000000000E+01
(PID.TID 0000.0001) %MON dynstat_salt_mean            =   3.4499126313132E+01
(PID.TID 0000.0001) %MON dynstat_salt_sd              =   2.7630078106207E-01
(PID.TID 0000.0001) %MON dynstat_salt_del2            =   9.4396513765879E-07
(PID.TID 0000.0001) %MON advcfl_uvel_max              =   2.0152466346826E-03
(PID.TID 0000.0001) %MON advcfl_vvel_max              =   1.6128335051969E-03
(PID.TID 0000.0001) %MON advcfl_wvel_max              =   3.9810392831983E-03
(PID.TID 0000.0001) %MON advcfl_W_hf_max              =   3.9810392831983E-03
(PID.TID 0000.0001) %MON pe_b_mean                    =  -8.3099402943803E-01
(PID.TID 0000.0001) %MON ke_max                       =   1.4074453886147E-04
(PID.TID 0000.0001) %MON ke_mean                      =   2.4743109193244E-07
(PID.TID 0000.0001) %MON ke_vol                       =   4.2724834621211E+12
(PID.TID 0000.0001) // =======================================================
(PID.TID 0000.0001) // End MONITOR dynamic field statistics
(PID.TID 0000.0001) // =======================================================
(PID.TID 0000.0001) // =======================================================
(PID.TID 0000.0001) // Begin OBCS MONITOR field statistics
(PID.TID 0000.0001) // =======================================================
(PID.TID 0000.0001) %MON obc_N_vVel_max               =   1.5029107225996E-05
(PID.TID 0000.0001) %MON obc_N_vVel_min               =   1.5029107225996E-05
(PID.TID 0000.0001) %MON obc_N_vVel_mean              =   1.5029107225996E-05
(PID.TID 0000.0001) %MON obc_N_vVel_sd                =   2.9819777975272E-12
(PID.TID 0000.0001) %MON obc_N_vVel_Int               =   9.9192107691575E+02
(PID.TID 0000.0001) // =======================================================
(PID.TID 0000.0001) // End OBCS MONITOR field statistics
(PID.TID 0000.0001) // =======================================================
 cg2d: Sum(rhs),rhsMax =   4.51518477256272E+00  2.99930560757494E+02
(PID.TID 0000.0001)      cg2d_init_res =   6.61152512810712E-06
(PID.TID 0000.0001)      cg2d_iters(min,last) =      -1      81
(PID.TID 0000.0001)      cg2d_last_res =   9.90620933335027E-12
(PID.TID 0000.0001) // =======================================================
(PID.TID 0000.0001) // Begin MONITOR dynamic field statistics
(PID.TID 0000.0001) // =======================================================
(PID.TID 0000.0001) %MON time_tsnumber                =                  1001
(PID.TID 0000.0001) %MON time_secondsf                =   1.0010000000000E+05
(PID.TID 0000.0001) %MON dynstat_eta_max              =   5.7957657532282E+00
(PID.TID 0000.0001) %MON dynstat_eta_min              =  -1.4199228121893E+01
(PID.TID 0000.0001) %MON dynstat_eta_mean             =  -2.5078553717749E+00
(PID.TID 0000.0001) %MON dynstat_eta_sd               =   4.9512483533065E+00
(PID.TID 0000.0001) %MON dynstat_eta_del2             =   2.0714927311464E-01
(PID.TID 0000.0001) %MON dynstat_uvel_max             =   4.5708533148208E-03
(PID.TID 0000.0001) %MON dynstat_uvel_min             =  -2.0200800334873E-02
(PID.TID 0000.0001) %MON dynstat_uvel_mean            =  -1.1384175116984E-07
(PID.TID 0000.0001) %MON dynstat_uvel_sd              =   6.0187283483413E-04
(PID.TID 0000.0001) %MON dynstat_uvel_del2            =   8.9526572521267E-07
(PID.TID 0000.0001) %MON dynstat_vvel_max             =   1.6168628687713E-02
(PID.TID 0000.0001) %MON dynstat_vvel_min             =  -6.8261139841210E-03
(PID.TID 0000.0001) %MON dynstat_vvel_mean            =   1.5234399133937E-05
(PID.TID 0000.0001) %MON dynstat_vvel_sd              =   3.7681942781344E-04
(PID.TID 0000.0001) %MON dynstat_vvel_del2            =   7.5511531334417E-07
(PID.TID 0000.0001) %MON dynstat_wvel_max             =   7.9839194193200E-04
(PID.TID 0000.0001) %MON dynstat_wvel_min             =  -7.7917035284970E-04
(PID.TID 0000.0001) %MON dynstat_wvel_mean            =   6.7004717360246E-09
(PID.TID 0000.0001) %MON dynstat_wvel_sd              =   1.6332440399673E-05
(PID.TID 0000.0001) %MON dynstat_wvel_del2            =   7.2887177512058E-08
(PID.TID 0000.0001) %MON dynstat_theta_max            =   1.2000000000000E+00
(PID.TID 0000.0001) %MON dynstat_theta_min            =  -1.0000000000000E+00
(PID.TID 0000.0001) %MON dynstat_theta_mean           =   5.6877958718641E-01
(PID.TID 0000.0001) %MON dynstat_theta_sd             =   8.6840896492924E-01
(PID.TID 0000.0001) %MON dynstat_theta_del2           =   2.4023157031263E-06
(PID.TID 0000.0001) %MON dynstat_salt_max             =   3.4700000000000E+01
(PID.TID 0000.0001) %MON dynstat_salt_min             =   3.4000000000000E+01
(PID.TID 0000.0001) %MON dynstat_salt_mean            =   3.4499126011203E+01
(PID.TID 0000.0001) %MON dynstat_salt_sd              =   2.7630062417747E-01
(PID.TID 0000.0001) %MON dynstat_salt_del2            =   9.4578231054729E-07
(PID.TID 0000.0001) %MON advcfl_uvel_max              =   2.0200800334873E-03
(PID.TID 0000.0001) %MON advcfl_vvel_max              =   1.6168628687713E-03
(PID.TID 0000.0001) %MON advcfl_wvel_max              =   3.9919597096600E-03
(PID.TID 0000.0001) %MON advcfl_W_hf_max              =   3.9919597096600E-03
(PID.TID 0000.0001) %MON pe_b_mean                    =  -8.3099674064470E-01
(PID.TID 0000.0001) %MON ke_max                       =   1.4157637684011E-04
(PID.TID 0000.0001) %MON ke_mean                      =   2.4864245425698E-07
(PID.TID 0000.0001) %MON ke_vol                       =   4.2724834004272E+12
(PID.TID 0000.0001) // =======================================================
(PID.TID 0000.0001) // End MONITOR dynamic field statistics
(PID.TID 0000.0001) // =======================================================
(PID.TID 0000.0001) // =======================================================
(PID.TID 0000.0001) // Begin OBCS MONITOR field statistics
(PID.TID 0000.0001) // =======================================================
(PID.TID 0000.0001) %MON obc_N_vVel_max               =   1.4986091514190E-05
(PID.TID 0000.0001) %MON obc_N_vVel_min               =   1.4986091514189E-05
(PID.TID 0000.0001) %MON obc_N_vVel_mean              =   1.4986091514189E-05
(PID.TID 0000.0001) %MON obc_N_vVel_sd                =   3.2871030941353E-12
(PID.TID 0000.0001) %MON obc_N_vVel_Int               =   9.8908203993649E+02
(PID.TID 0000.0001) // =======================================================
(PID.TID 0000.0001) // End OBCS MONITOR field statistics
(PID.TID 0000.0001) // =======================================================
 cg2d: Sum(rhs),rhsMax =   4.51520228957280E+00  2.99930624652928E+02
(PID.TID 0000.0001)      cg2d_init_res =   6.57470040073521E-06
(PID.TID 0000.0001)      cg2d_iters(min,last) =      -1      81
(PID.TID 0000.0001)      cg2d_last_res =   9.91602781943902E-12
(PID.TID 0000.0001) // =======================================================
(PID.TID 0000.0001) // Begin MONITOR dynamic field statistics
(PID.TID 0000.0001) // =======================================================
(PID.TID 0000.0001) %MON time_tsnumber                =                  1002
(PID.TID 0000.0001) %MON time_secondsf                =   1.0020000000000E+05
(PID.TID 0000.0001) %MON dynstat_eta_max              =   5.7957639878753E+00
(PID.TID 0000.0001) %MON dynstat_eta_min              =  -1.4199249647042E+01
(PID.TID 0000.0001) %MON dynstat_eta_mean             =  -2.5078656354554E+00
(PID.TID 0000.0001) %MON dynstat_eta_sd               =   4.9512519560002E+00
(PID.TID 0000.0001) %MON dynstat_eta_del2             =   2.0714929997534E-01
(PID.TID 0000.0001) %MON dynstat_uvel_max             =   4.5825401796407E-03
(PID.TID 0000.0001) %MON dynstat_uvel_min             =  -2.0249198385500E-02
(PID.TID 0000.0001) %MON dynstat_uvel_mean            =  -1.1379271602962E-07
(PID.TID 0000.0001) %MON dynstat_uvel_sd              =   6.0340599940961E-04
(PID.TID 0000.0001) %MON dynstat_uvel_del2            =   8.9730476519246E-07
(PID.TID 0000.0001) %MON dynstat_vvel_max             =   1.6208982423547E-02
(PID.TID 0000.0001) %MON dynstat_vvel_min             =  -6.8382419479969E-03
(PID.TID 0000.0001) %MON dynstat_vvel_mean            =   1.5184387597805E-05
(PID.TID 0000.0001) %MON dynstat_vvel_sd              =   3.7765425999921E-04
(PID.TID 0000.0001) %MON dynstat_vvel_del2            =   7.5718064020607E-07
(PID.TID 0000.0001) %MON dynstat_wvel_max             =   8.0058012988649E-04
(PID.TID 0000.0001) %MON dynstat_wvel_min             =  -7.8122643878514E-04
(PID.TID 0000.0001) %MON dynstat_wvel_mean            =   6.6375683255960E-09
(PID.TID 0000.0001) %MON dynstat_wvel_sd              =   1.6520970278666E-05
(PID.TID 0000.0001) %MON dynstat_wvel_del2            =   7.3920399152509E-08
(PID.TID 0000.0001) %MON dynstat_theta_max            =   1.2000000000000E+00
(PID.TID 0000.0001) %MON dynstat_theta_min            =  -1.0000000000000E+00
(PID.TID 0000.0001) %MON dynstat_theta_mean           =   5.6877883089093E-01
(PID.TID 0000.0001) %MON dynstat_theta_sd             =   8.6840855588773E-01
(PID.TID 0000.0001) %MON dynstat_theta_del2           =   2.4065942112720E-06
(PID.TID 0000.0001) %MON dynstat_salt_max             =   3.4700000000000E+01
(PID.TID 0000.0001) %MON dynstat_salt_min             =   3.4000000000000E+01
(PID.TID 0000.0001) %MON dynstat_salt_mean            =   3.4499125708662E+01
(PID.TID 0000.0001) %MON dynstat_salt_sd              =   2.7630046697623E-01
(PID.TID 0000.0001) %MON dynstat_salt_del2            =   9.4759441601386E-07
(PID.TID 0000.0001) %MON advcfl_uvel_max              =   2.0249198385500E-03
(PID.TID 0000.0001) %MON advcfl_vvel_max              =   1.6208982423547E-03
(PID.TID 0000.0001) %MON advcfl_wvel_max              =   4.0029006494324E-03
(PID.TID 0000.0001) %MON advcfl_W_hf_max              =   4.0029006494324E-03
(PID.TID 0000.0001) %MON pe_b_mean                    =  -8.3099943454593E-01
(PID.TID 0000.0001) %MON ke_max                       =   1.4241249815114E-04
(PID.TID 0000.0001) %MON ke_mean                      =   2.4986224128731E-07
(PID.TID 0000.0001) %MON ke_vol                       =   4.2724833390917E+12
(PID.TID 0000.0001) // =======================================================
(PID.TID 0000.0001) // End MONITOR dynamic field statistics
(PID.TID 0000.0001) // =======================================================
(PID.TID 0000.0001) // =======================================================
(PID.TID 0000.0001) // Begin OBCS MONITOR field statistics
(PID.TID 0000.0001) // =======================================================
(PID.TID 0000.0001) %MON obc_N_vVel_max               =   1.4941428936140E-05
(PID.TID 0000.0001) %MON obc_N_vVel_min               =   1.4941428936139E-05
(PID.TID 0000.0001) %MON obc_N_vVel_mean              =   1.4941428936140E-05
(PID.TID 0000.0001) %MON obc_N_vVel_sd                =  -6.2038545941477E-24
(PID.TID 0000.0001) %MON obc_N_vVel_Int               =   9.8613430978522E+02
(PID.TID 0000.0001) // =======================================================
(PID.TID 0000.0001) // End OBCS MONITOR field statistics
(PID.TID 0000.0001) // =======================================================
 cg2d: Sum(rhs),rhsMax =   4.51521971474999E+00  2.99930687042531E+02
(PID.TID 0000.0001)      cg2d_init_res =   6.53951151692299E-06
(PID.TID 0000.0001)      cg2d_iters(min,last) =      -1      81
(PID.TID 0000.0001)      cg2d_last_res =   9.92681256539055E-12
(PID.TID 0000.0001) // =======================================================
(PID.TID 0000.0001) // Begin MONITOR dynamic field statistics
(PID.TID 0000.0001) // =======================================================
(PID.TID 0000.0001) %MON time_tsnumber                =                  1003
(PID.TID 0000.0001) %MON time_secondsf                =   1.0030000000000E+05
(PID.TID 0000.0001) %MON dynstat_eta_max              =   5.7957623618230E+00
(PID.TID 0000.0001) %MON dynstat_eta_min              =  -1.4199271069043E+01
(PID.TID 0000.0001) %MON dynstat_eta_mean             =  -2.5078758355425E+00
(PID.TID 0000.0001) %MON dynstat_eta_sd               =   4.9512555374854E+00
(PID.TID 0000.0001) %MON dynstat_eta_del2             =   2.0714932686983E-01
(PID.TID 0000.0001) %MON dynstat_uvel_max             =   4.5942505018317E-03
(PID.TID 0000.0001) %MON dynstat_uvel_min             =  -2.0297660427410E-02
(PID.TID 0000.0001) %MON dynstat_uvel_mean            =  -1.1376454158414E-07
(PID.TID 0000.0001) %MON dynstat_uvel_sd              =   6.0494218824166E-04
(PID.TID 0000.0001) %MON dynstat_uvel_del2            =   8.9934883202504E-07
(PID.TID 0000.0001) %MON dynstat_vvel_max             =   1.6249396230016E-02
(PID.TID 0000.0001) %MON dynstat_vvel_min             =  -6.8503832641031E-03
(PID.TID 0000.0001) %MON dynstat_vvel_mean            =   1.5133245430316E-05
(PID.TID 0000.0001) %MON dynstat_vvel_sd              =   3.7849678856881E-04
(PID.TID 0000.0001) %MON dynstat_vvel_del2            =   7.5926740714860E-07
(PID.TID 0000.0001) %MON dynstat_wvel_max             =   8.0277241903361E-04
(PID.TID 0000.0001) %MON dynstat_wvel_min             =  -7.8328647010880E-04
(PID.TID 0000.0001) %MON dynstat_wvel_mean            =   6.5767583493620E-09
(PID.TID 0000.0001) %MON dynstat_wvel_sd              =   1.6731115738597E-05
(PID.TID 0000.0001) %MON dynstat_wvel_del2            =   7.5025877120571E-08
(PID.TID 0000.0001) %MON dynstat_theta_max            =   1.2000000000000E+00
(PID.TID 0000.0001) %MON dynstat_theta_min            =  -1.0000000000000E+00
(PID.TID 0000.0001) %MON dynstat_theta_mean           =   5.6877807306376E-01
(PID.TID 0000.0001) %MON dynstat_theta_sd             =   8.6840814602098E-01
(PID.TID 0000.0001) %MON dynstat_theta_del2           =   2.4108622489215E-06
(PID.TID 0000.0001) %MON dynstat_salt_max             =   3.4700000000000E+01
(PID.TID 0000.0001) %MON dynstat_salt_min             =   3.4000000000000E+01
(PID.TID 0000.0001) %MON dynstat_salt_mean            =   3.4499125405511E+01
(PID.TID 0000.0001) %MON dynstat_salt_sd              =   2.7630030945593E-01
(PID.TID 0000.0001) %MON dynstat_salt_del2            =   9.4940670492878E-07
(PID.TID 0000.0001) %MON advcfl_uvel_max              =   2.0297660427410E-03
(PID.TID 0000.0001) %MON advcfl_vvel_max              =   1.6249396230016E-03
(PID.TID 0000.0001) %MON advcfl_wvel_max              =   4.0138620951681E-03
(PID.TID 0000.0001) %MON advcfl_W_hf_max              =   4.0138620951681E-03
(PID.TID 0000.0001) %MON pe_b_mean                    =  -8.3100211088152E-01
(PID.TID 0000.0001) %MON ke_max                       =   1.4325292088973E-04
(PID.TID 0000.0001) %MON ke_mean                      =   2.5108972077302E-07
(PID.TID 0000.0001) %MON ke_vol                       =   4.2724832781254E+12
(PID.TID 0000.0001) // =======================================================
(PID.TID 0000.0001) // End MONITOR dynamic field statistics
(PID.TID 0000.0001) // =======================================================
(PID.TID 0000.0001) // =======================================================
(PID.TID 0000.0001) // Begin OBCS MONITOR field statistics
(PID.TID 0000.0001) // =======================================================
(PID.TID 0000.0001) %MON obc_N_vVel_max               =   1.4895495958594E-05
(PID.TID 0000.0001) %MON obc_N_vVel_min               =   1.4895495958594E-05
(PID.TID 0000.0001) %MON obc_N_vVel_mean              =   1.4895495958594E-05
(PID.TID 0000.0001) %MON obc_N_vVel_sd                =  -2.5280707471152E-23
(PID.TID 0000.0001) %MON obc_N_vVel_Int               =   9.8310273326722E+02
(PID.TID 0000.0001) // =======================================================
(PID.TID 0000.0001) // End OBCS MONITOR field statistics
(PID.TID 0000.0001) // =======================================================
 cg2d: Sum(rhs),rhsMax =   4.51523704510444E+00  2.99930748006872E+02
(PID.TID 0000.0001)      cg2d_init_res =   6.50620261668558E-06
(PID.TID 0000.0001)      cg2d_iters(min,last) =      -1      81
(PID.TID 0000.0001)      cg2d_last_res =   9.93863105655643E-12
(PID.TID 0000.0001) // =======================================================
(PID.TID 0000.0001) // Begin MONITOR dynamic field statistics
(PID.TID 0000.0001) // =======================================================
(PID.TID 0000.0001) %MON time_tsnumber                =                  1004
(PID.TID 0000.0001) %MON time_secondsf                =   1.0040000000000E+05
(PID.TID 0000.0001) %MON dynstat_eta_max              =   5.7957608762051E+00
(PID.TID 0000.0001) %MON dynstat_eta_min              =  -1.4199292386660E+01
(PID.TID 0000.0001) %MON dynstat_eta_mean             =  -2.5078859710491E+00
(PID.TID 0000.0001) %MON dynstat_eta_sd               =   4.9512590978081E+00
(PID.TID 0000.0001) %MON dynstat_eta_del2             =   2.0714935379854E-01
(PID.TID 0000.0001) %MON dynstat_uvel_max             =   4.6059842777524E-03
(PID.TID 0000.0001) %MON dynstat_uvel_min             =  -2.0346186388604E-02
(PID.TID 0000.0001) %MON dynstat_uvel_mean            =  -1.1375762154309E-07
(PID.TID 0000.0001) %MON dynstat_uvel_sd              =   6.0648141088860E-04
(PID.TID 0000.0001) %MON dynstat_uvel_del2            =   9.0139801224535E-07
(PID.TID 0000.0001) %MON dynstat_vvel_max             =   1.6289870079706E-02
(PID.TID 0000.0001) %MON dynstat_vvel_min             =  -6.8625378870610E-03
(PID.TID 0000.0001) %MON dynstat_vvel_mean            =   1.5081412420093E-05
(PID.TID 0000.0001) %MON dynstat_vvel_sd              =   3.7934470145008E-04
(PID.TID 0000.0001) %MON dynstat_vvel_del2            =   7.6135679074117E-07
(PID.TID 0000.0001) %MON dynstat_wvel_max             =   8.0496880781180E-04
(PID.TID 0000.0001) %MON dynstat_wvel_min             =  -7.8535044868325E-04
(PID.TID 0000.0001) %MON dynstat_wvel_mean            =   6.5186077231033E-09
(PID.TID 0000.0001) %MON dynstat_wvel_sd              =   1.6955209622044E-05
(PID.TID 0000.0001) %MON dynstat_wvel_del2            =   7.6165507645441E-08
(PID.TID 0000.0001) %MON dynstat_theta_max            =   1.2000000000000E+00
(PID.TID 0000.0001) %MON dynstat_theta_min            =  -1.0000000000000E+00
(PID.TID 0000.0001) %MON dynstat_theta_mean           =   5.6877731370656E-01
(PID.TID 0000.0001) %MON dynstat_theta_sd             =   8.6840773532662E-01
(PID.TID 0000.0001) %MON dynstat_theta_del2           =   2.4151419379279E-06
(PID.TID 0000.0001) %MON dynstat_salt_max             =   3.4700000000000E+01
(PID.TID 0000.0001) %MON dynstat_salt_min             =   3.4000000000000E+01
(PID.TID 0000.0001) %MON dynstat_salt_mean            =   3.4499125101748E+01
(PID.TID 0000.0001) %MON dynstat_salt_sd              =   2.7630015161538E-01
(PID.TID 0000.0001) %MON dynstat_salt_del2            =   9.5122484119800E-07
(PID.TID 0000.0001) %MON advcfl_uvel_max              =   2.0346186388604E-03
(PID.TID 0000.0001) %MON advcfl_vvel_max              =   1.6289870079706E-03
(PID.TID 0000.0001) %MON advcfl_wvel_max              =   4.0248440390590E-03
(PID.TID 0000.0001) %MON advcfl_W_hf_max              =   4.0248440390590E-03
(PID.TID 0000.0001) %MON pe_b_mean                    =  -8.3100476950504E-01
(PID.TID 0000.0001) %MON ke_max                       =   1.4409766320090E-04
(PID.TID 0000.0001) %MON ke_mean                      =   2.5232406127008E-07
(PID.TID 0000.0001) %MON ke_vol                       =   4.2724832175369E+12
(PID.TID 0000.0001) // =======================================================
(PID.TID 0000.0001) // End MONITOR dynamic field statistics
(PID.TID 0000.0001) // =======================================================
(PID.TID 0000.0001) // =======================================================
(PID.TID 0000.0001) // Begin OBCS MONITOR field statistics
(PID.TID 0000.0001) // =======================================================
(PID.TID 0000.0001) %MON obc_N_vVel_max               =   1.4848684320106E-05
(PID.TID 0000.0001) %MON obc_N_vVel_min               =   1.4848684320106E-05
(PID.TID 0000.0001) %MON obc_N_vVel_mean              =   1.4848684320106E-05
(PID.TID 0000.0001) %MON obc_N_vVel_sd                =   3.3378269690509E-12
(PID.TID 0000.0001) %MON obc_N_vVel_Int               =   9.8001316512697E+02
(PID.TID 0000.0001) // =======================================================
(PID.TID 0000.0001) // End OBCS MONITOR field statistics
(PID.TID 0000.0001) // =======================================================
 cg2d: Sum(rhs),rhsMax =   4.51525427826301E+00  2.99930807639256E+02
(PID.TID 0000.0001)      cg2d_init_res =   6.47496566991589E-06
(PID.TID 0000.0001)      cg2d_iters(min,last) =      -1      81
(PID.TID 0000.0001)      cg2d_last_res =   9.95158000349465E-12
(PID.TID 0000.0001) // =======================================================
(PID.TID 0000.0001) // Begin MONITOR dynamic field statistics
(PID.TID 0000.0001) // =======================================================
(PID.TID 0000.0001) %MON time_tsnumber                =                  1005
(PID.TID 0000.0001) %MON time_secondsf                =   1.0050000000000E+05
(PID.TID 0000.0001) %MON dynstat_eta_max              =   5.7957595313487E+00
(PID.TID 0000.0001) %MON dynstat_eta_min              =  -1.4199313599456E+01
(PID.TID 0000.0001) %MON dynstat_eta_mean             =  -2.5078960414371E+00
(PID.TID 0000.0001) %MON dynstat_eta_sd               =   4.9512626371715E+00
(PID.TID 0000.0001) %MON dynstat_eta_del2             =   2.0714938076216E-01
(PID.TID 0000.0001) %MON dynstat_uvel_max             =   4.6177415038109E-03
(PID.TID 0000.0001) %MON dynstat_uvel_min             =  -2.0394776196248E-02
(PID.TID 0000.0001) %MON dynstat_uvel_mean            =  -1.1377217201768E-07
(PID.TID 0000.0001) %MON dynstat_uvel_sd              =   6.0802367914047E-04
(PID.TID 0000.0001) %MON dynstat_uvel_del2            =   9.0345239922049E-07
(PID.TID 0000.0001) %MON dynstat_vvel_max             =   1.6330403946771E-02
(PID.TID 0000.0001) %MON dynstat_vvel_min             =  -6.8747057702225E-03
(PID.TID 0000.0001) %MON dynstat_vvel_mean            =   1.5029339748723E-05
(PID.TID 0000.0001) %MON dynstat_vvel_sd              =   3.8019552500173E-04
(PID.TID 0000.0001) %MON dynstat_vvel_del2            =   7.6342955420774E-07
(PID.TID 0000.0001) %MON dynstat_wvel_max             =   8.0716929461727E-04
(PID.TID 0000.0001) %MON dynstat_wvel_min             =  -7.8741837641368E-04
(PID.TID 0000.0001) %MON dynstat_wvel_mean            =   6.4636665772864E-09
(PID.TID 0000.0001) %MON dynstat_wvel_sd              =   1.7185181975340E-05
(PID.TID 0000.0001) %MON dynstat_wvel_del2            =   7.7299605949165E-08
(PID.TID 0000.0001) %MON dynstat_theta_max            =   1.2000000000000E+00
(PID.TID 0000.0001) %MON dynstat_theta_min            =  -1.0000000000000E+00
(PID.TID 0000.0001) %MON dynstat_theta_mean           =   5.6877655282115E-01
(PID.TID 0000.0001) %MON dynstat_theta_sd             =   8.6840732380136E-01
(PID.TID 0000.0001) %MON dynstat_theta_del2           =   2.4194561938577E-06
(PID.TID 0000.0001) %MON dynstat_salt_max             =   3.4700000000000E+01
(PID.TID 0000.0001) %MON dynstat_salt_min             =   3.4000000000000E+01
(PID.TID 0000.0001) %MON dynstat_salt_mean            =   3.4499124797376E+01
(PID.TID 0000.0001) %MON dynstat_salt_sd              =   2.7629999345371E-01
(PID.TID 0000.0001) %MON dynstat_salt_del2            =   9.5305467786230E-07
(PID.TID 0000.0001) %MON advcfl_uvel_max              =   2.0394776196248E-03
(PID.TID 0000.0001) %MON advcfl_vvel_max              =   1.6330403946771E-03
(PID.TID 0000.0001) %MON advcfl_wvel_max              =   4.0358464730863E-03
(PID.TID 0000.0001) %MON advcfl_W_hf_max              =   4.0358464730863E-03
(PID.TID 0000.0001) %MON pe_b_mean                    =  -8.3100741038658E-01
(PID.TID 0000.0001) %MON ke_max                       =   1.4494674327815E-04
(PID.TID 0000.0001) %MON ke_mean                      =   2.5356436368464E-07
(PID.TID 0000.0001) %MON ke_vol                       =   4.2724831573320E+12
(PID.TID 0000.0001) // =======================================================
(PID.TID 0000.0001) // End MONITOR dynamic field statistics
(PID.TID 0000.0001) // =======================================================
(PID.TID 0000.0001) // =======================================================
(PID.TID 0000.0001) // Begin OBCS MONITOR field statistics
(PID.TID 0000.0001) // =======================================================
(PID.TID 0000.0001) %MON obc_N_vVel_max               =   1.4801398084956E-05
(PID.TID 0000.0001) %MON obc_N_vVel_min               =   1.4801398084956E-05
(PID.TID 0000.0001) %MON obc_N_vVel_mean              =   1.4801398084956E-05
(PID.TID 0000.0001) %MON obc_N_vVel_sd                =   4.2991065131876E-12
(PID.TID 0000.0001) %MON obc_N_vVel_Int               =   9.7689227360708E+02
(PID.TID 0000.0001) // =======================================================
(PID.TID 0000.0001) // End OBCS MONITOR field statistics
(PID.TID 0000.0001) // =======================================================
 cg2d: Sum(rhs),rhsMax =   4.51527141248626E+00  2.99930866045613E+02
(PID.TID 0000.0001)      cg2d_init_res =   6.44594029930258E-06
(PID.TID 0000.0001)      cg2d_iters(min,last) =      -1      81
(PID.TID 0000.0001)      cg2d_last_res =   9.96573209980005E-12
(PID.TID 0000.0001) // =======================================================
(PID.TID 0000.0001) // Begin MONITOR dynamic field statistics
(PID.TID 0000.0001) // =======================================================
(PID.TID 0000.0001) %MON time_tsnumber                =                  1006
(PID.TID 0000.0001) %MON time_secondsf                =   1.0060000000000E+05
(PID.TID 0000.0001) %MON dynstat_eta_max              =   5.7957583267573E+00
(PID.TID 0000.0001) %MON dynstat_eta_min              =  -1.4199334707817E+01
(PID.TID 0000.0001) %MON dynstat_eta_mean             =  -2.5079060466259E+00
(PID.TID 0000.0001) %MON dynstat_eta_sd               =   4.9512661559333E+00
(PID.TID 0000.0001) %MON dynstat_eta_del2             =   2.0714940776133E-01
(PID.TID 0000.0001) %MON dynstat_uvel_max             =   4.6295221769626E-03
(PID.TID 0000.0001) %MON dynstat_uvel_min             =  -2.0443429776595E-02
(PID.TID 0000.0001) %MON dynstat_uvel_mean            =  -1.1380822183558E-07
(PID.TID 0000.0001) %MON dynstat_uvel_sd              =   6.0956900660875E-04
(PID.TID 0000.0001) %MON dynstat_uvel_del2            =   9.0551209098906E-07
(PID.TID 0000.0001) %MON dynstat_vvel_max             =   1.6370997806067E-02
(PID.TID 0000.0001) %MON dynstat_vvel_min             =  -6.8868868660914E-03
(PID.TID 0000.0001) %MON dynstat_vvel_mean            =   1.4977486217568E-05
(PID.TID 0000.0001) %MON dynstat_vvel_sd              =   3.8104671827405E-04
(PID.TID 0000.0001) %MON dynstat_vvel_del2            =   7.6546689064465E-07
(PID.TID 0000.0001) %MON dynstat_wvel_max             =   8.0937387775593E-04
(PID.TID 0000.0001) %MON dynstat_wvel_min             =  -7.8949025522491E-04
(PID.TID 0000.0001) %MON dynstat_wvel_mean            =   6.4124649433193E-09
(PID.TID 0000.0001) %MON dynstat_wvel_sd              =   1.7412964274257E-05
(PID.TID 0000.0001) %MON dynstat_wvel_del2            =   7.8389232112391E-08
(PID.TID 0000.0001) %MON dynstat_theta_max            =   1.2000000000000E+00
(PID.TID 0000.0001) %MON dynstat_theta_min            =  -1.0000000000000E+00
(PID.TID 0000.0001) %MON dynstat_theta_mean           =   5.6877579040932E-01
(PID.TID 0000.0001) %MON dynstat_theta_sd             =   8.6840691144713E-01
(PID.TID 0000.0001) %MON dynstat_theta_del2           =   2.4238276799379E-06
(PID.TID 0000.0001) %MON dynstat_salt_max             =   3.4700000000000E+01
(PID.TID 0000.0001) %MON dynstat_salt_min             =   3.4000000000000E+01
(PID.TID 0000.0001) %MON dynstat_salt_mean            =   3.4499124492394E+01
(PID.TID 0000.0001) %MON dynstat_salt_sd              =   2.7629983497134E-01
(PID.TID 0000.0001) %MON dynstat_salt_del2            =   9.5490198207965E-07
(PID.TID 0000.0001) %MON advcfl_uvel_max              =   2.0443429776595E-03
(PID.TID 0000.0001) %MON advcfl_vvel_max              =   1.6370997806067E-03
(PID.TID 0000.0001) %MON advcfl_wvel_max              =   4.0468693887796E-03
(PID.TID 0000.0001) %MON advcfl_W_hf_max              =   4.0468693887796E-03
(PID.TID 0000.0001) %MON pe_b_mean                    =  -8.3101003361385E-01
(PID.TID 0000.0001) %MON ke_max                       =   1.4580017936011E-04
(PID.TID 0000.0001) %MON ke_mean                      =   2.5480969611284E-07
(PID.TID 0000.0001) %MON ke_vol                       =   4.2724830975139E+12
(PID.TID 0000.0001) // =======================================================
(PID.TID 0000.0001) // End MONITOR dynamic field statistics
(PID.TID 0000.0001) // =======================================================
(PID.TID 0000.0001) // =======================================================
(PID.TID 0000.0001) // Begin OBCS MONITOR field statistics
(PID.TID 0000.0001) // =======================================================
(PID.TID 0000.0001) %MON obc_N_vVel_max               =   1.4754050247462E-05
(PID.TID 0000.0001) %MON obc_N_vVel_min               =   1.4754050247461E-05
(PID.TID 0000.0001) %MON obc_N_vVel_mean              =   1.4754050247461E-05
(PID.TID 0000.0001) %MON obc_N_vVel_sd                =   2.1146974220003E-12
(PID.TID 0000.0001) %MON obc_N_vVel_Int               =   9.7376731633244E+02
(PID.TID 0000.0001) // =======================================================
(PID.TID 0000.0001) // End OBCS MONITOR field statistics
(PID.TID 0000.0001) // =======================================================
 cg2d: Sum(rhs),rhsMax =   4.51528844669336E+00  2.99930923343621E+02
(PID.TID 0000.0001)      cg2d_init_res =   6.41923987350543E-06
(PID.TID 0000.0001)      cg2d_iters(min,last) =      -1      81
(PID.TID 0000.0001)      cg2d_last_res =   9.98129681948383E-12
(PID.TID 0000.0001) // =======================================================
(PID.TID 0000.0001) // Begin MONITOR dynamic field statistics
(PID.TID 0000.0001) // =======================================================
(PID.TID 0000.0001) %MON time_tsnumber                =                  1007
(PID.TID 0000.0001) %MON time_secondsf                =   1.0070000000000E+05
(PID.TID 0000.0001) %MON dynstat_eta_max              =   5.7957572611058E+00
(PID.TID 0000.0001) %MON dynstat_eta_min              =  -1.4199355712962E+01
(PID.TID 0000.0001) %MON dynstat_eta_mean             =  -2.5079159869991E+00
(PID.TID 0000.0001) %MON dynstat_eta_sd               =   4.9512696546065E+00
(PID.TID 0000.0001) %MON dynstat_eta_del2             =   2.0714943479692E-01
(PID.TID 0000.0001) %MON dynstat_uvel_max             =   4.6413262948697E-03
(PID.TID 0000.0001) %MON dynstat_uvel_min             =  -2.0492147054430E-02
(PID.TID 0000.0001) %MON dynstat_uvel_mean            =  -1.1386561170242E-07
(PID.TID 0000.0001) %MON dynstat_uvel_sd              =   6.1111740829118E-04
(PID.TID 0000.0001) %MON dynstat_uvel_del2            =   9.0757718803575E-07
(PID.TID 0000.0001) %MON dynstat_vvel_max             =   1.6411651632537E-02
(PID.TID 0000.0001) %MON dynstat_vvel_min             =  -6.8990811266127E-03
(PID.TID 0000.0001) %MON dynstat_vvel_mean            =   1.4926314313217E-05
(PID.TID 0000.0001) %MON dynstat_vvel_sd              =   3.8189577032308E-04
(PID.TID 0000.0001) %MON dynstat_vvel_del2            =   7.6745125895312E-07
(PID.TID 0000.0001) %MON dynstat_wvel_max             =   8.1158255549599E-04
(PID.TID 0000.0001) %MON dynstat_wvel_min             =  -7.9156608707087E-04
(PID.TID 0000.0001) %MON dynstat_wvel_mean            =   6.3655071199919E-09
(PID.TID 0000.0001) %MON dynstat_wvel_sd              =   1.7630847127352E-05
(PID.TID 0000.0001) %MON dynstat_wvel_del2            =   7.9398229753454E-08
(PID.TID 0000.0001) %MON dynstat_theta_max            =   1.2000000000000E+00
(PID.TID 0000.0001) %MON dynstat_theta_min            =  -1.0000000000000E+00
(PID.TID 0000.0001) %MON dynstat_theta_mean           =   5.6877502647273E-01
(PID.TID 0000.0001) %MON dynstat_theta_sd             =   8.6840649826869E-01
(PID.TID 0000.0001) %MON dynstat_theta_del2           =   2.4282778117524E-06
(PID.TID 0000.0001) %MON dynstat_salt_max             =   3.4700000000000E+01
(PID.TID 0000.0001) %MON dynstat_salt_min             =   3.4000000000000E+01
(PID.TID 0000.0001) %MON dynstat_salt_mean            =   3.4499124186803E+01
(PID.TID 0000.0001) %MON dynstat_salt_sd              =   2.7629967616952E-01
(PID.TID 0000.0001) %MON dynstat_salt_del2            =   9.5677225514832E-07
(PID.TID 0000.0001) %MON advcfl_uvel_max              =   2.0492147054430E-03
(PID.TID 0000.0001) %MON advcfl_vvel_max              =   1.6411651632537E-03
(PID.TID 0000.0001) %MON advcfl_wvel_max              =   4.0579127774799E-03
(PID.TID 0000.0001) %MON advcfl_W_hf_max              =   4.0579127774799E-03
(PID.TID 0000.0001) %MON pe_b_mean                    =  -8.3101263939306E-01
(PID.TID 0000.0001) %MON ke_max                       =   1.4665798972660E-04
(PID.TID 0000.0001) %MON ke_mean                      =   2.5605913036690E-07
(PID.TID 0000.0001) %MON ke_vol                       =   4.2724830380830E+12
(PID.TID 0000.0001) // =======================================================
(PID.TID 0000.0001) // End MONITOR dynamic field statistics
(PID.TID 0000.0001) // =======================================================
(PID.TID 0000.0001) // =======================================================
(PID.TID 0000.0001) // Begin OBCS MONITOR field statistics
(PID.TID 0000.0001) // =======================================================
(PID.TID 0000.0001) %MON obc_N_vVel_max               =   1.4707059279300E-05
(PID.TID 0000.0001) %MON obc_N_vVel_min               =   1.4707059279300E-05
(PID.TID 0000.0001) %MON obc_N_vVel_mean              =   1.4707059279300E-05
(PID.TID 0000.0001) %MON obc_N_vVel_sd                =  -1.4139618595828E-23
(PID.TID 0000.0001) %MON obc_N_vVel_Int               =   9.7066591243379E+02
(PID.TID 0000.0001) // =======================================================
(PID.TID 0000.0001) // End OBCS MONITOR field statistics
(PID.TID 0000.0001) // =======================================================
 cg2d: Sum(rhs),rhsMax =   4.51530538048025E+00  2.99930979662046E+02
(PID.TID 0000.0001)      cg2d_init_res =   6.39496913401124E-06
(PID.TID 0000.0001)      cg2d_iters(min,last) =      -1      81
(PID.TID 0000.0001)      cg2d_last_res =   9.99844956768721E-12
(PID.TID 0000.0001) // =======================================================
(PID.TID 0000.0001) // Begin MONITOR dynamic field statistics
(PID.TID 0000.0001) // =======================================================
(PID.TID 0000.0001) %MON time_tsnumber                =                  1008
(PID.TID 0000.0001) %MON time_secondsf                =   1.0080000000000E+05
(PID.TID 0000.0001) %MON dynstat_eta_max              =   5.7957563322439E+00
(PID.TID 0000.0001) %MON dynstat_eta_min              =  -1.4199376616926E+01
(PID.TID 0000.0001) %MON dynstat_eta_mean             =  -2.5079258634088E+00
(PID.TID 0000.0001) %MON dynstat_eta_sd               =   4.9512731338609E+00
(PID.TID 0000.0001) %MON dynstat_eta_del2             =   2.0714946187014E-01
(PID.TID 0000.0001) %MON dynstat_uvel_max             =   4.6531538563244E-03
(PID.TID 0000.0001) %MON dynstat_uvel_min             =  -2.0540927953107E-02
(PID.TID 0000.0001) %MON dynstat_uvel_mean            =  -1.1394398402008E-07
(PID.TID 0000.0001) %MON dynstat_uvel_sd              =   6.1266890011226E-04
(PID.TID 0000.0001) %MON dynstat_uvel_del2            =   9.0964779079341E-07
(PID.TID 0000.0001) %MON dynstat_vvel_max             =   1.6452365400275E-02
(PID.TID 0000.0001) %MON dynstat_vvel_min             =  -6.9112885036011E-03
(PID.TID 0000.0001) %MON dynstat_vvel_mean            =   1.4876286077367E-05
(PID.TID 0000.0001) %MON dynstat_vvel_sd              =   3.8274029600537E-04
(PID.TID 0000.0001) %MON dynstat_vvel_del2            =   7.6936715836230E-07
(PID.TID 0000.0001) %MON dynstat_wvel_max             =   8.1379532603744E-04
(PID.TID 0000.0001) %MON dynstat_wvel_min             =  -7.9364587381691E-04
(PID.TID 0000.0001) %MON dynstat_wvel_mean            =   6.3232635913078E-09
(PID.TID 0000.0001) %MON dynstat_wvel_sd              =   1.7831776128716E-05
(PID.TID 0000.0001) %MON dynstat_wvel_del2            =   8.0294868693393E-08
(PID.TID 0000.0001) %MON dynstat_theta_max            =   1.2000000000000E+00
(PID.TID 0000.0001) %MON dynstat_theta_min            =  -1.0000000000000E+00
(PID.TID 0000.0001) %MON dynstat_theta_mean           =   5.6877426101320E-01
(PID.TID 0000.0001) %MON dynstat_theta_sd             =   8.6840608427141E-01
(PID.TID 0000.0001) %MON dynstat_theta_del2           =   2.4328258029665E-06
(PID.TID 0000.0001) %MON dynstat_salt_max             =   3.4700000000000E+01
(PID.TID 0000.0001) %MON dynstat_salt_min             =   3.4000000000000E+01
(PID.TID 0000.0001) %MON dynstat_salt_mean            =   3.4499123880603E+01
(PID.TID 0000.0001) %MON dynstat_salt_sd              =   2.7629951705002E-01
(PID.TID 0000.0001) %MON dynstat_salt_del2            =   9.5867031467088E-07
(PID.TID 0000.0001) %MON advcfl_uvel_max              =   2.0540927953107E-03
(PID.TID 0000.0001) %MON advcfl_vvel_max              =   1.6452365400275E-03
(PID.TID 0000.0001) %MON advcfl_wvel_max              =   4.0689766301872E-03
(PID.TID 0000.0001) %MON advcfl_W_hf_max              =   4.0689766301872E-03
(PID.TID 0000.0001) %MON pe_b_mean                    =  -8.3101522804912E-01
(PID.TID 0000.0001) %MON ke_max                       =   1.4752019269580E-04
(PID.TID 0000.0001) %MON ke_mean                      =   2.5731177846140E-07
(PID.TID 0000.0001) %MON ke_vol                       =   4.2724829790372E+12
(PID.TID 0000.0001) // =======================================================
(PID.TID 0000.0001) // End MONITOR dynamic field statistics
(PID.TID 0000.0001) // =======================================================
(PID.TID 0000.0001) // =======================================================
(PID.TID 0000.0001) // Begin OBCS MONITOR field statistics
(PID.TID 0000.0001) // =======================================================
(PID.TID 0000.0001) %MON obc_N_vVel_max               =   1.4660845523627E-05
(PID.TID 0000.0001) %MON obc_N_vVel_min               =   1.4660845523627E-05
(PID.TID 0000.0001) %MON obc_N_vVel_mean              =   1.4660845523627E-05
(PID.TID 0000.0001) %MON obc_N_vVel_sd                =  -5.1698788284564E-25
(PID.TID 0000.0001) %MON obc_N_vVel_Int               =   9.6761580455941E+02
(PID.TID 0000.0001) // =======================================================
(PID.TID 0000.0001) // End OBCS MONITOR field statistics
(PID.TID 0000.0001) // =======================================================
 cg2d: Sum(rhs),rhsMax =   4.51532221413705E+00  2.99931035139012E+02
(PID.TID 0000.0001)      cg2d_init_res =   6.37321546760305E-06
(PID.TID 0000.0001)      cg2d_iters(min,last) =      -1      82
(PID.TID 0000.0001)      cg2d_last_res =   8.32275547821272E-12
(PID.TID 0000.0001) // =======================================================
(PID.TID 0000.0001) // Begin MONITOR dynamic field statistics
(PID.TID 0000.0001) // =======================================================
(PID.TID 0000.0001) %MON time_tsnumber                =                  1009
(PID.TID 0000.0001) %MON time_secondsf                =   1.0090000000000E+05
(PID.TID 0000.0001) %MON dynstat_eta_max              =   5.7957555370028E+00
(PID.TID 0000.0001) %MON dynstat_eta_min              =  -1.4199397422436E+01
(PID.TID 0000.0001) %MON dynstat_eta_mean             =  -2.5079356771709E+00
(PID.TID 0000.0001) %MON dynstat_eta_sd               =   4.9512765945063E+00
(PID.TID 0000.0001) %MON dynstat_eta_del2             =   2.0714948898210E-01
(PID.TID 0000.0001) %MON dynstat_uvel_max             =   4.6650048603247E-03
(PID.TID 0000.0001) %MON dynstat_uvel_min             =  -2.0589772398584E-02
(PID.TID 0000.0001) %MON dynstat_uvel_mean            =  -1.1404310092426E-07
(PID.TID 0000.0001) %MON dynstat_uvel_sd              =   6.1422349849725E-04
(PID.TID 0000.0001) %MON dynstat_uvel_del2            =   9.1172399778253E-07
(PID.TID 0000.0001) %MON dynstat_vvel_max             =   1.6493139080583E-02
(PID.TID 0000.0001) %MON dynstat_vvel_min             =  -6.9235089329673E-03
(PID.TID 0000.0001) %MON dynstat_vvel_mean            =   1.4827858959517E-05
(PID.TID 0000.0001) %MON dynstat_vvel_sd              =   3.8357812602662E-04
(PID.TID 0000.0001) %MON dynstat_vvel_del2            =   7.7120179245220E-07
(PID.TID 0000.0001) %MON dynstat_wvel_max             =   8.1601218723342E-04
(PID.TID 0000.0001) %MON dynstat_wvel_min             =  -7.9572961552161E-04
(PID.TID 0000.0001) %MON dynstat_wvel_mean            =   6.2861705672359E-09
(PID.TID 0000.0001) %MON dynstat_wvel_sd              =   1.8009580402774E-05
(PID.TID 0000.0001) %MON dynstat_wvel_del2            =   8.1053046200163E-08
(PID.TID 0000.0001) %MON dynstat_theta_max            =   1.2000000000000E+00
(PID.TID 0000.0001) %MON dynstat_theta_min            =  -1.0000000000000E+00
(PID.TID 0000.0001) %MON dynstat_theta_mean           =   5.6877349403235E-01
(PID.TID 0000.0001) %MON dynstat_theta_sd             =   8.6840566945922E-01
(PID.TID 0000.0001) %MON dynstat_theta_del2           =   2.4374880593051E-06
(PID.TID 0000.0001) %MON dynstat_salt_max             =   3.4700000000000E+01
(PID.TID 0000.0001) %MON dynstat_salt_min             =   3.4000000000000E+01
(PID.TID 0000.0001) %MON dynstat_salt_mean            =   3.4499123573795E+01
(PID.TID 0000.0001) %MON dynstat_salt_sd              =   2.7629935761383E-01
(PID.TID 0000.0001) %MON dynstat_salt_del2            =   9.6060023567542E-07
(PID.TID 0000.0001) %MON advcfl_uvel_max              =   2.0589772398584E-03
(PID.TID 0000.0001) %MON advcfl_vvel_max              =   1.6493139080583E-03
(PID.TID 0000.0001) %MON advcfl_wvel_max              =   4.0800609361671E-03
(PID.TID 0000.0001) %MON advcfl_W_hf_max              =   4.0800609361671E-03
(PID.TID 0000.0001) %MON pe_b_mean                    =  -8.3101780002337E-01
(PID.TID 0000.0001) %MON ke_max                       =   1.4838680663358E-04
(PID.TID 0000.0001) %MON ke_mean                      =   2.5856682745779E-07
(PID.TID 0000.0001) %MON ke_vol                       =   4.2724829203714E+12
(PID.TID 0000.0001) // =======================================================
(PID.TID 0000.0001) // End MONITOR dynamic field statistics
(PID.TID 0000.0001) // =======================================================
(PID.TID 0000.0001) // =======================================================
(PID.TID 0000.0001) // Begin OBCS MONITOR field statistics
(PID.TID 0000.0001) // =======================================================
(PID.TID 0000.0001) %MON obc_N_vVel_max               =   1.4615827093560E-05
(PID.TID 0000.0001) %MON obc_N_vVel_min               =   1.4615827093559E-05
(PID.TID 0000.0001) %MON obc_N_vVel_mean              =   1.4615827093559E-05
(PID.TID 0000.0001) %MON obc_N_vVel_sd                =   3.8886881558226E-12
(PID.TID 0000.0001) %MON obc_N_vVel_Int               =   9.6464458817492E+02
(PID.TID 0000.0001) // =======================================================
(PID.TID 0000.0001) // End OBCS MONITOR field statistics
(PID.TID 0000.0001) // =======================================================
 cg2d: Sum(rhs),rhsMax =   4.51533894864684E+00  2.99931089921367E+02
(PID.TID 0000.0001)      cg2d_init_res =   6.35410658135262E-06
(PID.TID 0000.0001)      cg2d_iters(min,last) =      -1      82
(PID.TID 0000.0001)      cg2d_last_res =   8.34089451382294E-12
(PID.TID 0000.0001) // =======================================================
(PID.TID 0000.0001) // Begin MONITOR dynamic field statistics
(PID.TID 0000.0001) // =======================================================
(PID.TID 0000.0001) %MON time_tsnumber                =                  1010
(PID.TID 0000.0001) %MON time_secondsf                =   1.0100000000000E+05
(PID.TID 0000.0001) %MON dynstat_eta_max              =   5.7957548720192E+00
(PID.TID 0000.0001) %MON dynstat_eta_min              =  -1.4199418133434E+01
(PID.TID 0000.0001) %MON dynstat_eta_mean             =  -2.5079454300593E+00
(PID.TID 0000.0001) %MON dynstat_eta_sd               =   4.9512800375106E+00
(PID.TID 0000.0001) %MON dynstat_eta_del2             =   2.0714951613429E-01
(PID.TID 0000.0001) %MON dynstat_uvel_max             =   4.6768793114111E-03
(PID.TID 0000.0001) %MON dynstat_uvel_min             =  -2.0638680297562E-02
(PID.TID 0000.0001) %MON dynstat_uvel_mean            =  -1.1416173072417E-07
(PID.TID 0000.0001) %MON dynstat_uvel_sd              =   6.1578121999126E-04
(PID.TID 0000.0001) %MON dynstat_uvel_del2            =   9.1380590407410E-07
(PID.TID 0000.0001) %MON dynstat_vvel_max             =   1.6533972647318E-02
(PID.TID 0000.0001) %MON dynstat_vvel_min             =  -6.9357424169638E-03
(PID.TID 0000.0001) %MON dynstat_vvel_mean            =   1.4781481148811E-05
(PID.TID 0000.0001) %MON dynstat_vvel_sd              =   3.8440738708235E-04
(PID.TID 0000.0001) %MON dynstat_vvel_del2            =   7.7294558540700E-07
(PID.TID 0000.0001) %MON dynstat_wvel_max             =   8.1823313810339E-04
(PID.TID 0000.0001) %MON dynstat_wvel_min             =  -7.9781731898890E-04
(PID.TID 0000.0001) %MON dynstat_wvel_mean            =   6.2546274074694E-09
(PID.TID 0000.0001) %MON dynstat_wvel_sd              =   1.8159134974226E-05
(PID.TID 0000.0001) %MON dynstat_wvel_del2            =   8.1653044220988E-08
(PID.TID 0000.0001) %MON dynstat_theta_max            =   1.2000000000000E+00
(PID.TID 0000.0001) %MON dynstat_theta_min            =  -1.0000000000000E+00
(PID.TID 0000.0001) %MON dynstat_theta_mean           =   5.6877272553159E-01
(PID.TID 0000.0001) %MON dynstat_theta_sd             =   8.6840525383635E-01
(PID.TID 0000.0001) %MON dynstat_theta_del2           =   2.4422774082714E-06
(PID.TID 0000.0001) %MON dynstat_salt_max             =   3.4700000000000E+01
(PID.TID 0000.0001) %MON dynstat_salt_min             =   3.4000000000000E+01
(PID.TID 0000.0001) %MON dynstat_salt_mean            =   3.4499123266379E+01
(PID.TID 0000.0001) %MON dynstat_salt_sd              =   2.7629919786214E-01
(PID.TID 0000.0001) %MON dynstat_salt_del2            =   9.6256488380825E-07
(PID.TID 0000.0001) %MON advcfl_uvel_max              =   2.0638680297562E-03
(PID.TID 0000.0001) %MON advcfl_vvel_max              =   1.6533972647318E-03
(PID.TID 0000.0001) %MON advcfl_wvel_max              =   4.0911656905170E-03
(PID.TID 0000.0001) %MON advcfl_W_hf_max              =   4.0911656905170E-03
(PID.TID 0000.0001) %MON pe_b_mean                    =  -8.3102035587132E-01
(PID.TID 0000.0001) %MON ke_max                       =   1.4925784989328E-04
(PID.TID 0000.0001) %MON ke_mean                      =   2.5982357101196E-07
(PID.TID 0000.0001) %MON ke_vol                       =   4.2724828620776E+12
(PID.TID 0000.0001) // =======================================================
(PID.TID 0000.0001) // End MONITOR dynamic field statistics
(PID.TID 0000.0001) // =======================================================
(PID.TID 0000.0001) // =======================================================
(PID.TID 0000.0001) // Begin OBCS MONITOR field statistics
(PID.TID 0000.0001) // =======================================================
(PID.TID 0000.0001) %MON obc_N_vVel_max               =   1.4572416155009E-05
(PID.TID 0000.0001) %MON obc_N_vVel_min               =   1.4572416155008E-05
(PID.TID 0000.0001) %MON obc_N_vVel_mean              =   1.4572416155008E-05
(PID.TID 0000.0001) %MON obc_N_vVel_sd                =   2.2219888121176E-12
(PID.TID 0000.0001) %MON obc_N_vVel_Int               =   9.6177946623055E+02
(PID.TID 0000.0001) // =======================================================
(PID.TID 0000.0001) // End OBCS MONITOR field statistics
(PID.TID 0000.0001) // =======================================================
 cg2d: Sum(rhs),rhsMax =   4.51535558566567E+00  2.99931144164715E+02
(PID.TID 0000.0001)      cg2d_init_res =   6.33768877162902E-06
(PID.TID 0000.0001)      cg2d_iters(min,last) =      -1      82
(PID.TID 0000.0001)      cg2d_last_res =   8.36044357305441E-12
(PID.TID 0000.0001) // =======================================================
(PID.TID 0000.0001) // Begin MONITOR dynamic field statistics
(PID.TID 0000.0001) // =======================================================
(PID.TID 0000.0001) %MON time_tsnumber                =                  1011
(PID.TID 0000.0001) %MON time_secondsf                =   1.0110000000000E+05
(PID.TID 0000.0001) %MON dynstat_eta_max              =   5.7957543325486E+00
(PID.TID 0000.0001) %MON dynstat_eta_min              =  -1.4199438754228E+01
(PID.TID 0000.0001) %MON dynstat_eta_mean             =  -2.5079551242949E+00
(PID.TID 0000.0001) %MON dynstat_eta_sd               =   4.9512834639594E+00
(PID.TID 0000.0001) %MON dynstat_eta_del2             =   2.0714954332768E-01
(PID.TID 0000.0001) %MON dynstat_uvel_max             =   4.6887772111610E-03
(PID.TID 0000.0001) %MON dynstat_uvel_min             =  -2.0687651578637E-02
(PID.TID 0000.0001) %MON dynstat_uvel_mean            =  -1.1429886542769E-07
(PID.TID 0000.0001) %MON dynstat_uvel_sd              =   6.1734208086548E-04
(PID.TID 0000.0001) %MON dynstat_uvel_del2            =   9.1589359302902E-07
(PID.TID 0000.0001) %MON dynstat_vvel_max             =   1.6574866063989E-02
(PID.TID 0000.0001) %MON dynstat_vvel_min             =  -6.9479888609711E-03
(PID.TID 0000.0001) %MON dynstat_vvel_mean            =   1.4737588190445E-05
(PID.TID 0000.0001) %MON dynstat_vvel_sd              =   3.8522656935839E-04
(PID.TID 0000.0001) %MON dynstat_vvel_del2            =   7.7459253156340E-07
(PID.TID 0000.0001) %MON dynstat_wvel_max             =   8.2045817566478E-04
(PID.TID 0000.0001) %MON dynstat_wvel_min             =  -7.9990898062929E-04
(PID.TID 0000.0001) %MON dynstat_wvel_mean            =   6.2289806823799E-09
(PID.TID 0000.0001) %MON dynstat_wvel_sd              =   1.8276463250664E-05
(PID.TID 0000.0001) %MON dynstat_wvel_del2            =   8.2081870529192E-08
(PID.TID 0000.0001) %MON dynstat_theta_max            =   1.2000000000000E+00
(PID.TID 0000.0001) %MON dynstat_theta_min            =  -1.0000000000000E+00
(PID.TID 0000.0001) %MON dynstat_theta_mean           =   5.6877195551200E-01
(PID.TID 0000.0001) %MON dynstat_theta_sd             =   8.6840483740717E-01
(PID.TID 0000.0001) %MON dynstat_theta_del2           =   2.4472026656198E-06
(PID.TID 0000.0001) %MON dynstat_salt_max             =   3.4700000000000E+01
(PID.TID 0000.0001) %MON dynstat_salt_min             =   3.4000000000000E+01
(PID.TID 0000.0001) %MON dynstat_salt_mean            =   3.4499122958355E+01
(PID.TID 0000.0001) %MON dynstat_salt_sd              =   2.7629903779641E-01
(PID.TID 0000.0001) %MON dynstat_salt_del2            =   9.6456650416729E-07
(PID.TID 0000.0001) %MON advcfl_uvel_max              =   2.0687651578637E-03
(PID.TID 0000.0001) %MON advcfl_vvel_max              =   1.6574866063989E-03
(PID.TID 0000.0001) %MON advcfl_wvel_max              =   4.1022908783239E-03
(PID.TID 0000.0001) %MON advcfl_W_hf_max              =   4.1022908783239E-03
(PID.TID 0000.0001) %MON pe_b_mean                    =  -8.3102289625851E-01
(PID.TID 0000.0001) %MON ke_max                       =   1.5013334090748E-04
(PID.TID 0000.0001) %MON ke_mean                      =   2.6108143647844E-07
(PID.TID 0000.0001) %MON ke_vol                       =   4.2724828041454E+12
(PID.TID 0000.0001) // =======================================================
(PID.TID 0000.0001) // End MONITOR dynamic field statistics
(PID.TID 0000.0001) // =======================================================
(PID.TID 0000.0001) // =======================================================
(PID.TID 0000.0001) // Begin OBCS MONITOR field statistics
(PID.TID 0000.0001) // =======================================================
(PID.TID 0000.0001) %MON obc_N_vVel_max               =   1.4531015940156E-05
(PID.TID 0000.0001) %MON obc_N_vVel_min               =   1.4531015940155E-05
(PID.TID 0000.0001) %MON obc_N_vVel_mean              =   1.4531015940156E-05
(PID.TID 0000.0001) %MON obc_N_vVel_sd                =  -1.4579058296247E-23
(PID.TID 0000.0001) %MON obc_N_vVel_Int               =   9.5904705205029E+02
(PID.TID 0000.0001) // =======================================================
(PID.TID 0000.0001) // End OBCS MONITOR field statistics
(PID.TID 0000.0001) // =======================================================
 cg2d: Sum(rhs),rhsMax =   4.51537212754218E+00  2.99931198030425E+02
(PID.TID 0000.0001)      cg2d_init_res =   6.32419412089044E-06
(PID.TID 0000.0001)      cg2d_iters(min,last) =      -1      82
(PID.TID 0000.0001)      cg2d_last_res =   8.38109601500291E-12
(PID.TID 0000.0001) // =======================================================
(PID.TID 0000.0001) // Begin MONITOR dynamic field statistics
(PID.TID 0000.0001) // =======================================================
(PID.TID 0000.0001) %MON time_tsnumber                =                  1012
(PID.TID 0000.0001) %MON time_secondsf                =   1.0120000000000E+05
(PID.TID 0000.0001) %MON dynstat_eta_max              =   5.7957539133097E+00
(PID.TID 0000.0001) %MON dynstat_eta_min              =  -1.4199459290014E+01
(PID.TID 0000.0001) %MON dynstat_eta_mean             =  -2.5079647625313E+00
(PID.TID 0000.0001) %MON dynstat_eta_sd               =   4.9512868750753E+00
(PID.TID 0000.0001) %MON dynstat_eta_del2             =   2.0714957056404E-01
(PID.TID 0000.0001) %MON dynstat_uvel_max             =   4.7006985651556E-03
(PID.TID 0000.0001) %MON dynstat_uvel_min             =  -2.0736686154343E-02
(PID.TID 0000.0001) %MON dynstat_uvel_mean            =  -1.1445337772669E-07
(PID.TID 0000.0001) %MON dynstat_uvel_sd              =   6.1890609666485E-04
(PID.TID 0000.0001) %MON dynstat_uvel_del2            =   9.1798714206519E-07
(PID.TID 0000.0001) %MON dynstat_vvel_max             =   1.6615819294966E-02
(PID.TID 0000.0001) %MON dynstat_vvel_min             =  -6.9602482359112E-03
(PID.TID 0000.0001) %MON dynstat_vvel_mean            =   1.4696597952974E-05
(PID.TID 0000.0001) %MON dynstat_vvel_sd              =   3.8603457790820E-04
(PID.TID 0000.0001) %MON dynstat_vvel_del2            =   7.7614034398320E-07
(PID.TID 0000.0001) %MON dynstat_wvel_max             =   8.2268729829112E-04
(PID.TID 0000.0001) %MON dynstat_wvel_min             =  -8.0200460330975E-04
(PID.TID 0000.0001) %MON dynstat_wvel_mean            =   6.2095292524243E-09
(PID.TID 0000.0001) %MON dynstat_wvel_sd              =   1.8358786702524E-05
(PID.TID 0000.0001) %MON dynstat_wvel_del2            =   8.2333227011314E-08
(PID.TID 0000.0001) %MON dynstat_theta_max            =   1.2000000000000E+00
(PID.TID 0000.0001) %MON dynstat_theta_min            =  -1.0000000000000E+00
(PID.TID 0000.0001) %MON dynstat_theta_mean           =   5.6877118397445E-01
(PID.TID 0000.0001) %MON dynstat_theta_sd             =   8.6840442017516E-01
(PID.TID 0000.0001) %MON dynstat_theta_del2           =   2.4522672213590E-06
(PID.TID 0000.0001) %MON dynstat_salt_max             =   3.4700000000000E+01
(PID.TID 0000.0001) %MON dynstat_salt_min             =   3.4000000000000E+01
(PID.TID 0000.0001) %MON dynstat_salt_mean            =   3.4499122649723E+01
(PID.TID 0000.0001) %MON dynstat_salt_sd              =   2.7629887741757E-01
(PID.TID 0000.0001) %MON dynstat_salt_del2            =   9.6660638967050E-07
(PID.TID 0000.0001) %MON advcfl_uvel_max              =   2.0736686154343E-03
(PID.TID 0000.0001) %MON advcfl_vvel_max              =   1.6615819294966E-03
(PID.TID 0000.0001) %MON advcfl_wvel_max              =   4.1134364914556E-03
(PID.TID 0000.0001) %MON advcfl_W_hf_max              =   4.1134364914556E-03
(PID.TID 0000.0001) %MON pe_b_mean                    =  -8.3102542195622E-01
(PID.TID 0000.0001) %MON ke_max                       =   1.5101329813084E-04
(PID.TID 0000.0001) %MON ke_mean                      =   2.6234000605072E-07
(PID.TID 0000.0001) %MON ke_vol                       =   4.2724827465617E+12
(PID.TID 0000.0001) // =======================================================
(PID.TID 0000.0001) // End MONITOR dynamic field statistics
(PID.TID 0000.0001) // =======================================================
(PID.TID 0000.0001) // =======================================================
(PID.TID 0000.0001) // Begin OBCS MONITOR field statistics
(PID.TID 0000.0001) // =======================================================
(PID.TID 0000.0001) %MON obc_N_vVel_max               =   1.4492015499390E-05
(PID.TID 0000.0001) %MON obc_N_vVel_min               =   1.4492015499390E-05
(PID.TID 0000.0001) %MON obc_N_vVel_mean              =   1.4492015499390E-05
(PID.TID 0000.0001) %MON obc_N_vVel_sd                =  -8.8921915849450E-24
(PID.TID 0000.0001) %MON obc_N_vVel_Int               =   9.5647302295977E+02
(PID.TID 0000.0001) // =======================================================
(PID.TID 0000.0001) // End OBCS MONITOR field statistics
(PID.TID 0000.0001) // =======================================================
 cg2d: Sum(rhs),rhsMax =   4.51538857728016E+00  2.99931251685378E+02
(PID.TID 0000.0001)      cg2d_init_res =   6.31383334110787E-06
(PID.TID 0000.0001)      cg2d_iters(min,last) =      -1      82
(PID.TID 0000.0001)      cg2d_last_res =   8.40287231512033E-12
(PID.TID 0000.0001) // =======================================================
(PID.TID 0000.0001) // Begin MONITOR dynamic field statistics
(PID.TID 0000.0001) // =======================================================
(PID.TID 0000.0001) %MON time_tsnumber                =                  1013
(PID.TID 0000.0001) %MON time_secondsf                =   1.0130000000000E+05
(PID.TID 0000.0001) %MON dynstat_eta_max              =   5.7957536083278E+00
(PID.TID 0000.0001) %MON dynstat_eta_min              =  -1.4199479746709E+01
(PID.TID 0000.0001) %MON dynstat_eta_mean             =  -2.5079743478324E+00
(PID.TID 0000.0001) %MON dynstat_eta_sd               =   4.9512902721999E+00
(PID.TID 0000.0001) %MON dynstat_eta_del2             =   2.0714959784553E-01
(PID.TID 0000.0001) %MON dynstat_uvel_max             =   4.7126433821418E-03
(PID.TID 0000.0001) %MON dynstat_uvel_min             =  -2.0785783935626E-02
(PID.TID 0000.0001) %MON dynstat_uvel_mean            =  -1.1462397397378E-07
(PID.TID 0000.0001) %MON dynstat_uvel_sd              =   6.2047328184837E-04
(PID.TID 0000.0001) %MON dynstat_uvel_del2            =   9.2008662565849E-07
(PID.TID 0000.0001) %MON dynstat_vvel_max             =   1.6656832298374E-02
(PID.TID 0000.0001) %MON dynstat_vvel_min             =  -6.9725205015612E-03
(PID.TID 0000.0001) %MON dynstat_vvel_mean            =   1.4658906642621E-05
(PID.TID 0000.0001) %MON dynstat_vvel_sd              =   3.8683076693144E-04
(PID.TID 0000.0001) %MON dynstat_vvel_del2            =   7.7759042072795E-07
(PID.TID 0000.0001) %MON dynstat_wvel_max             =   8.2492050395736E-04
(PID.TID 0000.0001) %MON dynstat_wvel_min             =  -8.0410418804981E-04
(PID.TID 0000.0001) %MON dynstat_wvel_mean            =   6.1965211060311E-09
(PID.TID 0000.0001) %MON dynstat_wvel_sd              =   1.8404531403743E-05
(PID.TID 0000.0001) %MON dynstat_wvel_del2            =   8.2407162765100E-08
(PID.TID 0000.0001) %MON dynstat_theta_max            =   1.2000000000000E+00
(PID.TID 0000.0001) %MON dynstat_theta_min            =  -1.0000000000000E+00
(PID.TID 0000.0001) %MON dynstat_theta_mean           =   5.6877041091922E-01
(PID.TID 0000.0001) %MON dynstat_theta_sd             =   8.6840400214362E-01
(PID.TID 0000.0001) %MON dynstat_theta_del2           =   2.4574720324881E-06
(PID.TID 0000.0001) %MON dynstat_salt_max             =   3.4700000000000E+01
(PID.TID 0000.0001) %MON dynstat_salt_min             =   3.4000000000000E+01
(PID.TID 0000.0001) %MON dynstat_salt_mean            =   3.4499122340484E+01
(PID.TID 0000.0001) %MON dynstat_salt_sd              =   2.7629871672682E-01
(PID.TID 0000.0001) %MON dynstat_salt_del2            =   9.6868446053046E-07
(PID.TID 0000.0001) %MON advcfl_uvel_max              =   2.0785783935626E-03
(PID.TID 0000.0001) %MON advcfl_vvel_max              =   1.6656832298374E-03
(PID.TID 0000.0001) %MON advcfl_wvel_max              =   4.1246025197868E-03
(PID.TID 0000.0001) %MON advcfl_W_hf_max              =   4.1246025197868E-03
(PID.TID 0000.0001) %MON pe_b_mean                    =  -8.3102793383452E-01
(PID.TID 0000.0001) %MON ke_max                       =   1.5189774001421E-04
(PID.TID 0000.0001) %MON ke_mean                      =   2.6359903156650E-07
(PID.TID 0000.0001) %MON ke_vol                       =   4.2724826893106E+12
(PID.TID 0000.0001) // =======================================================
(PID.TID 0000.0001) // End MONITOR dynamic field statistics
(PID.TID 0000.0001) // =======================================================
(PID.TID 0000.0001) // =======================================================
(PID.TID 0000.0001) // Begin OBCS MONITOR field statistics
(PID.TID 0000.0001) // =======================================================
(PID.TID 0000.0001) %MON obc_N_vVel_max               =   1.4455786381321E-05
(PID.TID 0000.0001) %MON obc_N_vVel_min               =   1.4455786381321E-05
(PID.TID 0000.0001) %MON obc_N_vVel_mean              =   1.4455786381321E-05
(PID.TID 0000.0001) %MON obc_N_vVel_sd                =  -2.8175839615088E-24
(PID.TID 0000.0001) %MON obc_N_vVel_Int               =   9.5408190116721E+02
(PID.TID 0000.0001) // =======================================================
(PID.TID 0000.0001) // End OBCS MONITOR field statistics
(PID.TID 0000.0001) // =======================================================
 cg2d: Sum(rhs),rhsMax =   4.51540493851683E+00  2.99931305300822E+02
(PID.TID 0000.0001)      cg2d_init_res =   6.30674453932845E-06
(PID.TID 0000.0001)      cg2d_iters(min,last) =      -1      82
(PID.TID 0000.0001)      cg2d_last_res =   8.42529924956036E-12
(PID.TID 0000.0001) // =======================================================
(PID.TID 0000.0001) // Begin MONITOR dynamic field statistics
(PID.TID 0000.0001) // =======================================================
(PID.TID 0000.0001) %MON time_tsnumber                =                  1014
(PID.TID 0000.0001) %MON time_secondsf                =   1.0140000000000E+05
(PID.TID 0000.0001) %MON dynstat_eta_max              =   5.7957534109672E+00
(PID.TID 0000.0001) %MON dynstat_eta_min              =  -1.4199500130880E+01
(PID.TID 0000.0001) %MON dynstat_eta_mean             =  -2.5079838836502E+00
(PID.TID 0000.0001) %MON dynstat_eta_sd               =   4.9512936567714E+00
(PID.TID 0000.0001) %MON dynstat_eta_del2             =   2.0714962517356E-01
(PID.TID 0000.0001) %MON dynstat_uvel_max             =   4.7246116734989E-03
(PID.TID 0000.0001) %MON dynstat_uvel_min             =  -2.0834944831254E-02
(PID.TID 0000.0001) %MON dynstat_uvel_mean            =  -1.1480919241815E-07
(PID.TID 0000.0001) %MON dynstat_uvel_sd              =   6.2204364965434E-04
(PID.TID 0000.0001) %MON dynstat_uvel_del2            =   9.2219210731509E-07
(PID.TID 0000.0001) %MON dynstat_vvel_max             =   1.6697905026699E-02
(PID.TID 0000.0001) %MON dynstat_vvel_min             =  -6.9848056180399E-03
(PID.TID 0000.0001) %MON dynstat_vvel_mean            =   1.4624884829350E-05
(PID.TID 0000.0001) %MON dynstat_vvel_sd              =   3.8761495663073E-04
(PID.TID 0000.0001) %MON dynstat_vvel_del2            =   7.7894765610570E-07
(PID.TID 0000.0001) %MON dynstat_wvel_max             =   8.2715779054047E-04
(PID.TID 0000.0001) %MON dynstat_wvel_min             =  -8.0620773556888E-04
(PID.TID 0000.0001) %MON dynstat_wvel_mean            =   6.1901453919711E-09
(PID.TID 0000.0001) %MON dynstat_wvel_sd              =   1.8413299615308E-05
(PID.TID 0000.0001) %MON dynstat_wvel_del2            =   8.2309475194229E-08
(PID.TID 0000.0001) %MON dynstat_theta_max            =   1.2000000000000E+00
(PID.TID 0000.0001) %MON dynstat_theta_min            =  -1.0000000000000E+00
(PID.TID 0000.0001) %MON dynstat_theta_mean           =   5.6876963634611E-01
(PID.TID 0000.0001) %MON dynstat_theta_sd             =   8.6840358331650E-01
(PID.TID 0000.0001) %MON dynstat_theta_del2           =   2.4628133662374E-06
(PID.TID 0000.0001) %MON dynstat_salt_max             =   3.4700000000000E+01
(PID.TID 0000.0001) %MON dynstat_salt_min             =   3.4000000000000E+01
(PID.TID 0000.0001) %MON dynstat_salt_mean            =   3.4499122030636E+01
(PID.TID 0000.0001) %MON dynstat_salt_sd              =   2.7629855572523E-01
(PID.TID 0000.0001) %MON dynstat_salt_del2            =   9.7079954839438E-07
(PID.TID 0000.0001) %MON advcfl_uvel_max              =   2.0834944831254E-03
(PID.TID 0000.0001) %MON advcfl_vvel_max              =   1.6697905026699E-03
(PID.TID 0000.0001) %MON advcfl_wvel_max              =   4.1357889527023E-03
(PID.TID 0000.0001) %MON advcfl_W_hf_max              =   4.1357889527023E-03
(PID.TID 0000.0001) %MON pe_b_mean                    =  -8.3103043285574E-01
(PID.TID 0000.0001) %MON ke_max                       =   1.5278668503843E-04
(PID.TID 0000.0001) %MON ke_mean                      =   2.6485844279733E-07
(PID.TID 0000.0001) %MON ke_vol                       =   4.2724826323739E+12
(PID.TID 0000.0001) // =======================================================
(PID.TID 0000.0001) // End MONITOR dynamic field statistics
(PID.TID 0000.0001) // =======================================================
(PID.TID 0000.0001) // =======================================================
(PID.TID 0000.0001) // Begin OBCS MONITOR field statistics
(PID.TID 0000.0001) // =======================================================
(PID.TID 0000.0001) %MON obc_N_vVel_max               =   1.4422679336496E-05
(PID.TID 0000.0001) %MON obc_N_vVel_min               =   1.4422679336496E-05
(PID.TID 0000.0001) %MON obc_N_vVel_mean              =   1.4422679336496E-05
(PID.TID 0000.0001) %MON obc_N_vVel_sd                =  -2.5332406259436E-24
(PID.TID 0000.0001) %MON obc_N_vVel_Int               =   9.5189683620873E+02
(PID.TID 0000.0001) // =======================================================
(PID.TID 0000.0001) // End OBCS MONITOR field statistics
(PID.TID 0000.0001) // =======================================================
 cg2d: Sum(rhs),rhsMax =   4.51542121550951E+00  2.99931359050455E+02
(PID.TID 0000.0001)      cg2d_init_res =   6.30315989738412E-06
(PID.TID 0000.0001)      cg2d_iters(min,last) =      -1      82
(PID.TID 0000.0001)      cg2d_last_res =   8.44832729564067E-12
(PID.TID 0000.0001) // =======================================================
(PID.TID 0000.0001) // Begin MONITOR dynamic field statistics
(PID.TID 0000.0001) // =======================================================
(PID.TID 0000.0001) %MON time_tsnumber                =                  1015
(PID.TID 0000.0001) %MON time_secondsf                =   1.0150000000000E+05
(PID.TID 0000.0001) %MON dynstat_eta_max              =   5.7957533139976E+00
(PID.TID 0000.0001) %MON dynstat_eta_min              =  -1.4199520449729E+01
(PID.TID 0000.0001) %MON dynstat_eta_mean             =  -2.5079933738019E+00
(PID.TID 0000.0001) %MON dynstat_eta_sd               =   4.9512970303304E+00
(PID.TID 0000.0001) %MON dynstat_eta_del2             =   2.0714965255009E-01
(PID.TID 0000.0001) %MON dynstat_uvel_max             =   4.7366034529723E-03
(PID.TID 0000.0001) %MON dynstat_uvel_min             =  -2.0884168747543E-02
(PID.TID 0000.0001) %MON dynstat_uvel_mean            =  -1.1500740097568E-07
(PID.TID 0000.0001) %MON dynstat_uvel_sd              =   6.2361721189205E-04
(PID.TID 0000.0001) %MON dynstat_uvel_del2            =   9.2430363962791E-07
(PID.TID 0000.0001) %MON dynstat_vvel_max             =   1.6739037426085E-02
(PID.TID 0000.0001) %MON dynstat_vvel_min             =  -6.9971035486436E-03
(PID.TID 0000.0001) %MON dynstat_vvel_mean            =   1.4594873565591E-05
(PID.TID 0000.0001) %MON dynstat_vvel_sd              =   3.8838743197662E-04
(PID.TID 0000.0001) %MON dynstat_vvel_del2            =   7.8022009716669E-07
(PID.TID 0000.0001) %MON dynstat_wvel_max             =   8.2939915589865E-04
(PID.TID 0000.0001) %MON dynstat_wvel_min             =  -8.0831524628590E-04
(PID.TID 0000.0001) %MON dynstat_wvel_mean            =   6.1905327480945E-09
(PID.TID 0000.0001) %MON dynstat_wvel_sd              =   1.8385814530380E-05
(PID.TID 0000.0001) %MON dynstat_wvel_del2            =   8.2050919546975E-08
(PID.TID 0000.0001) %MON dynstat_theta_max            =   1.2000000000000E+00
(PID.TID 0000.0001) %MON dynstat_theta_min            =  -1.0000000000000E+00
(PID.TID 0000.0001) %MON dynstat_theta_mean           =   5.6876886025499E-01
(PID.TID 0000.0001) %MON dynstat_theta_sd             =   8.6840316369360E-01
(PID.TID 0000.0001) %MON dynstat_theta_del2           =   2.4682832414321E-06
(PID.TID 0000.0001) %MON dynstat_salt_max             =   3.4700000000000E+01
(PID.TID 0000.0001) %MON dynstat_salt_min             =   3.4000000000000E+01
(PID.TID 0000.0001) %MON dynstat_salt_mean            =   3.4499121720180E+01
(PID.TID 0000.0001) %MON dynstat_salt_sd              =   2.7629839441276E-01
(PID.TID 0000.0001) %MON dynstat_salt_del2            =   9.7294948574488E-07
(PID.TID 0000.0001) %MON advcfl_uvel_max              =   2.0884168747543E-03
(PID.TID 0000.0001) %MON advcfl_vvel_max              =   1.6739037426085E-03
(PID.TID 0000.0001) %MON advcfl_wvel_max              =   4.1469957794932E-03
(PID.TID 0000.0001) %MON advcfl_W_hf_max              =   4.1469957794932E-03
(PID.TID 0000.0001) %MON pe_b_mean                    =  -8.3103292006821E-01
(PID.TID 0000.0001) %MON ke_max                       =   1.5368015171332E-04
(PID.TID 0000.0001) %MON ke_mean                      =   2.6611834866933E-07
(PID.TID 0000.0001) %MON ke_vol                       =   4.2724825757311E+12
(PID.TID 0000.0001) // =======================================================
(PID.TID 0000.0001) // End MONITOR dynamic field statistics
(PID.TID 0000.0001) // =======================================================
(PID.TID 0000.0001) // =======================================================
(PID.TID 0000.0001) // Begin OBCS MONITOR field statistics
(PID.TID 0000.0001) // =======================================================
(PID.TID 0000.0001) %MON obc_N_vVel_max               =   1.4393020347791E-05
(PID.TID 0000.0001) %MON obc_N_vVel_min               =   1.4393020347790E-05
(PID.TID 0000.0001) %MON obc_N_vVel_mean              =   1.4393020347791E-05
(PID.TID 0000.0001) %MON obc_N_vVel_sd                =  -1.1451281605031E-23
(PID.TID 0000.0001) %MON obc_N_vVel_Int               =   9.4993934295419E+02
(PID.TID 0000.0001) // =======================================================
(PID.TID 0000.0001) // End OBCS MONITOR field statistics
(PID.TID 0000.0001) // =======================================================
 cg2d: Sum(rhs),rhsMax =   4.51543741308913E+00  2.99931413109234E+02
(PID.TID 0000.0001)      cg2d_init_res =   6.30329023945721E-06
(PID.TID 0000.0001)      cg2d_iters(min,last) =      -1      82
(PID.TID 0000.0001)      cg2d_last_res =   8.47185654627486E-12
(PID.TID 0000.0001) // =======================================================
(PID.TID 0000.0001) // Begin MONITOR dynamic field statistics
(PID.TID 0000.0001) // =======================================================
(PID.TID 0000.0001) %MON time_tsnumber                =                  1016
(PID.TID 0000.0001) %MON time_secondsf                =   1.0160000000000E+05
(PID.TID 0000.0001) %MON dynstat_eta_max              =   5.7957533096459E+00
(PID.TID 0000.0001) %MON dynstat_eta_min              =  -1.4199540710998E+01
(PID.TID 0000.0001) %MON dynstat_eta_mean             =  -2.5080028224336E+00
(PID.TID 0000.0001) %MON dynstat_eta_sd               =   4.9513003944989E+00
(PID.TID 0000.0001) %MON dynstat_eta_del2             =   2.0714967997730E-01
(PID.TID 0000.0001) %MON dynstat_uvel_max             =   4.7486187373345E-03
(PID.TID 0000.0001) %MON dynstat_uvel_min             =  -2.0934387044613E-02
(PID.TID 0000.0001) %MON dynstat_uvel_mean            =  -1.1521679572124E-07
(PID.TID 0000.0001) %MON dynstat_uvel_sd              =   6.2519397880323E-04
(PID.TID 0000.0001) %MON dynstat_uvel_del2            =   9.2642126471907E-07
(PID.TID 0000.0001) %MON dynstat_vvel_max             =   1.6780229435581E-02
(PID.TID 0000.0001) %MON dynstat_vvel_min             =  -7.0094142602359E-03
(PID.TID 0000.0001) %MON dynstat_vvel_mean            =   1.4569180727906E-05
(PID.TID 0000.0001) %MON dynstat_vvel_sd              =   3.8914892454293E-04
(PID.TID 0000.0001) %MON dynstat_vvel_del2            =   7.8141848826320E-07
(PID.TID 0000.0001) %MON dynstat_wvel_max             =   8.3164459785623E-04
(PID.TID 0000.0001) %MON dynstat_wvel_min             =  -8.1042672014498E-04
(PID.TID 0000.0001) %MON dynstat_wvel_mean            =   6.1977504939049E-09
(PID.TID 0000.0001) %MON dynstat_wvel_sd              =   1.8323845391193E-05
(PID.TID 0000.0001) %MON dynstat_wvel_del2            =   8.1646299133787E-08
(PID.TID 0000.0001) %MON dynstat_theta_max            =   1.2000000000000E+00
(PID.TID 0000.0001) %MON dynstat_theta_min            =  -1.0000000000000E+00
(PID.TID 0000.0001) %MON dynstat_theta_mean           =   5.6876808264513E-01
(PID.TID 0000.0001) %MON dynstat_theta_sd             =   8.6840274327760E-01
(PID.TID 0000.0001) %MON dynstat_theta_del2           =   2.4738702998080E-06
(PID.TID 0000.0001) %MON dynstat_salt_max             =   3.4700000000000E+01
(PID.TID 0000.0001) %MON dynstat_salt_min             =   3.4000000000000E+01
(PID.TID 0000.0001) %MON dynstat_salt_mean            =   3.4499121409116E+01
(PID.TID 0000.0001) %MON dynstat_salt_sd              =   2.7629823279028E-01
(PID.TID 0000.0001) %MON dynstat_salt_del2            =   9.7513122099052E-07
(PID.TID 0000.0001) %MON advcfl_uvel_max              =   2.0934387044613E-03
(PID.TID 0000.0001) %MON advcfl_vvel_max              =   1.6780229435581E-03
(PID.TID 0000.0001) %MON advcfl_wvel_max              =   4.1582229892812E-03
(PID.TID 0000.0001) %MON advcfl_W_hf_max              =   4.1582229892812E-03
(PID.TID 0000.0001) %MON pe_b_mean                    =  -8.3103539659599E-01
(PID.TID 0000.0001) %MON ke_max                       =   1.5457815856998E-04
(PID.TID 0000.0001) %MON ke_mean                      =   2.6737903185355E-07
(PID.TID 0000.0001) %MON ke_vol                       =   4.2724825193596E+12
(PID.TID 0000.0001) // =======================================================
(PID.TID 0000.0001) // End MONITOR dynamic field statistics
(PID.TID 0000.0001) // =======================================================
(PID.TID 0000.0001) // =======================================================
(PID.TID 0000.0001) // Begin OBCS MONITOR field statistics
(PID.TID 0000.0001) // =======================================================
(PID.TID 0000.0001) %MON obc_N_vVel_max               =   1.4367107403620E-05
(PID.TID 0000.0001) %MON obc_N_vVel_min               =   1.4367107403620E-05
(PID.TID 0000.0001) %MON obc_N_vVel_mean              =   1.4367107403620E-05
(PID.TID 0000.0001) %MON obc_N_vVel_sd                =  -8.1942579431034E-24
(PID.TID 0000.0001) %MON obc_N_vVel_Int               =   9.4822908863895E+02
(PID.TID 0000.0001) // =======================================================
(PID.TID 0000.0001) // End OBCS MONITOR field statistics
(PID.TID 0000.0001) // =======================================================
 cg2d: Sum(rhs),rhsMax =   4.51545353662445E+00  2.99931467651852E+02
(PID.TID 0000.0001)      cg2d_init_res =   6.30732972387376E-06
(PID.TID 0000.0001)      cg2d_iters(min,last) =      -1      82
(PID.TID 0000.0001)      cg2d_last_res =   8.49575259403700E-12
(PID.TID 0000.0001) // =======================================================
(PID.TID 0000.0001) // Begin MONITOR dynamic field statistics
(PID.TID 0000.0001) // =======================================================
(PID.TID 0000.0001) %MON time_tsnumber                =                  1017
(PID.TID 0000.0001) %MON time_secondsf                =   1.0170000000000E+05
(PID.TID 0000.0001) %MON dynstat_eta_max              =   5.7957533896708E+00
(PID.TID 0000.0001) %MON dynstat_eta_min              =  -1.4199560922921E+01
(PID.TID 0000.0001) %MON dynstat_eta_mean             =  -2.5080122339880E+00
(PID.TID 0000.0001) %MON dynstat_eta_sd               =   4.9513037509605E+00
(PID.TID 0000.0001) %MON dynstat_eta_del2             =   2.0714970745706E-01
(PID.TID 0000.0001) %MON dynstat_uvel_max             =   4.7606575467114E-03
(PID.TID 0000.0001) %MON dynstat_uvel_min             =  -2.0992862319515E-02
(PID.TID 0000.0001) %MON dynstat_uvel_mean            =  -1.1543541207027E-07
(PID.TID 0000.0001) %MON dynstat_uvel_sd              =   6.2677395899741E-04
(PID.TID 0000.0001) %MON dynstat_uvel_del2            =   9.2854501434730E-07
(PID.TID 0000.0001) %MON dynstat_vvel_max             =   1.6821480986533E-02
(PID.TID 0000.0001) %MON dynstat_vvel_min             =  -7.0217377234734E-03
(PID.TID 0000.0001) %MON dynstat_vvel_mean            =   1.4548077593547E-05
(PID.TID 0000.0001) %MON dynstat_vvel_sd              =   3.8990057897216E-04
(PID.TID 0000.0001) %MON dynstat_vvel_del2            =   7.8255574153007E-07
(PID.TID 0000.0001) %MON dynstat_wvel_max             =   8.3389411420860E-04
(PID.TID 0000.0001) %MON dynstat_wvel_min             =  -8.1254215671655E-04
(PID.TID 0000.0001) %MON dynstat_wvel_mean            =   6.2118030493052E-09
(PID.TID 0000.0001) %MON dynstat_wvel_sd              =   1.8230119076265E-05
(PID.TID 0000.0001) %MON dynstat_wvel_del2            =   8.1113506918650E-08
(PID.TID 0000.0001) %MON dynstat_theta_max            =   1.2000000000000E+00
(PID.TID 0000.0001) %MON dynstat_theta_min            =  -1.0000000000000E+00
(PID.TID 0000.0001) %MON dynstat_theta_mean           =   5.6876730351556E-01
(PID.TID 0000.0001) %MON dynstat_theta_sd             =   8.6840232207127E-01
(PID.TID 0000.0001) %MON dynstat_theta_del2           =   2.4795602114912E-06
(PID.TID 0000.0001) %MON dynstat_salt_max             =   3.4700000000000E+01
(PID.TID 0000.0001) %MON dynstat_salt_min             =   3.4000000000000E+01
(PID.TID 0000.0001) %MON dynstat_salt_mean            =   3.4499121097443E+01
(PID.TID 0000.0001) %MON dynstat_salt_sd              =   2.7629807085851E-01
(PID.TID 0000.0001) %MON dynstat_salt_del2            =   9.7734093060755E-07
(PID.TID 0000.0001) %MON advcfl_uvel_max              =   2.0992862319515E-03
(PID.TID 0000.0001) %MON advcfl_vvel_max              =   1.6821480986533E-03
(PID.TID 0000.0001) %MON advcfl_wvel_max              =   4.1694705710430E-03
(PID.TID 0000.0001) %MON advcfl_W_hf_max              =   4.1694705710430E-03
(PID.TID 0000.0001) %MON pe_b_mean                    =  -8.3103786362935E-01
(PID.TID 0000.0001) %MON ke_max                       =   1.5548072415623E-04
(PID.TID 0000.0001) %MON ke_mean                      =   2.6864093725278E-07
(PID.TID 0000.0001) %MON ke_vol                       =   4.2724824632347E+12
(PID.TID 0000.0001) // =======================================================
(PID.TID 0000.0001) // End MONITOR dynamic field statistics
(PID.TID 0000.0001) // =======================================================
(PID.TID 0000.0001) // =======================================================
(PID.TID 0000.0001) // Begin OBCS MONITOR field statistics
(PID.TID 0000.0001) // =======================================================
(PID.TID 0000.0001) %MON obc_N_vVel_max               =   1.4345207109419E-05
(PID.TID 0000.0001) %MON obc_N_vVel_min               =   1.4345207109419E-05
(PID.TID 0000.0001) %MON obc_N_vVel_mean              =   1.4345207109419E-05
(PID.TID 0000.0001) %MON obc_N_vVel_sd                =  -8.3752037020994E-24
(PID.TID 0000.0001) %MON obc_N_vVel_Int               =   9.4678366922169E+02
(PID.TID 0000.0001) // =======================================================
(PID.TID 0000.0001) // End OBCS MONITOR field statistics
(PID.TID 0000.0001) // =======================================================
 cg2d: Sum(rhs),rhsMax =   4.51546959197501E+00  2.99931522851282E+02
(PID.TID 0000.0001)      cg2d_init_res =   6.31544231835930E-06
(PID.TID 0000.0001)      cg2d_iters(min,last) =      -1      82
(PID.TID 0000.0001)      cg2d_last_res =   8.51989746038957E-12
(PID.TID 0000.0001) // =======================================================
(PID.TID 0000.0001) // Begin MONITOR dynamic field statistics
(PID.TID 0000.0001) // =======================================================
(PID.TID 0000.0001) %MON time_tsnumber                =                  1018
(PID.TID 0000.0001) %MON time_secondsf                =   1.0180000000000E+05
(PID.TID 0000.0001) %MON dynstat_eta_max              =   5.7957535454367E+00
(PID.TID 0000.0001) %MON dynstat_eta_min              =  -1.4199581094145E+01
(PID.TID 0000.0001) %MON dynstat_eta_mean             =  -2.5080216131662E+00
(PID.TID 0000.0001) %MON dynstat_eta_sd               =   4.9513071014536E+00
(PID.TID 0000.0001) %MON dynstat_eta_del2             =   2.0714973499146E-01
(PID.TID 0000.0001) %MON dynstat_uvel_max             =   4.7727199047571E-03
(PID.TID 0000.0001) %MON dynstat_uvel_min             =  -2.1051449232424E-02
(PID.TID 0000.0001) %MON dynstat_uvel_mean            =  -1.1566115231417E-07
(PID.TID 0000.0001) %MON dynstat_uvel_sd              =   6.2835715946230E-04
(PID.TID 0000.0001) %MON dynstat_uvel_del2            =   9.3067491021820E-07
(PID.TID 0000.0001) %MON dynstat_vvel_max             =   1.6862792001887E-02
(PID.TID 0000.0001) %MON dynstat_vvel_min             =  -7.0340739128341E-03
(PID.TID 0000.0001) %MON dynstat_vvel_mean            =   1.4531795694503E-05
(PID.TID 0000.0001) %MON dynstat_vvel_sd              =   3.9064390598501E-04
(PID.TID 0000.0001) %MON dynstat_vvel_del2            =   7.8364636989119E-07
(PID.TID 0000.0001) %MON dynstat_wvel_max             =   8.3614770271486E-04
(PID.TID 0000.0001) %MON dynstat_wvel_min             =  -8.1466155513426E-04
(PID.TID 0000.0001) %MON dynstat_wvel_mean            =   6.2326283330648E-09
(PID.TID 0000.0001) %MON dynstat_wvel_sd              =   1.8108222791137E-05
(PID.TID 0000.0001) %MON dynstat_wvel_del2            =   8.0472587514019E-08
(PID.TID 0000.0001) %MON dynstat_theta_max            =   1.2000000000000E+00
(PID.TID 0000.0001) %MON dynstat_theta_min            =  -1.0000000000000E+00
(PID.TID 0000.0001) %MON dynstat_theta_mean           =   5.6876652286496E-01
(PID.TID 0000.0001) %MON dynstat_theta_sd             =   8.6840190007523E-01
(PID.TID 0000.0001) %MON dynstat_theta_del2           =   2.4853362762453E-06
(PID.TID 0000.0001) %MON dynstat_salt_max             =   3.4700000000000E+01
(PID.TID 0000.0001) %MON dynstat_salt_min             =   3.4000000000000E+01
(PID.TID 0000.0001) %MON dynstat_salt_mean            =   3.4499120785160E+01
(PID.TID 0000.0001) %MON dynstat_salt_sd              =   2.7629790861788E-01
(PID.TID 0000.0001) %MON dynstat_salt_del2            =   9.7957418711344E-07
(PID.TID 0000.0001) %MON advcfl_uvel_max              =   2.1051449232424E-03
(PID.TID 0000.0001) %MON advcfl_vvel_max              =   1.6862792001887E-03
(PID.TID 0000.0001) %MON advcfl_wvel_max              =   4.1807385135743E-03
(PID.TID 0000.0001) %MON advcfl_W_hf_max              =   4.1807385135743E-03
(PID.TID 0000.0001) %MON pe_b_mean                    =  -8.3104032241481E-01
(PID.TID 0000.0001) %MON ke_max                       =   1.5638786703252E-04
(PID.TID 0000.0001) %MON ke_mean                      =   2.6990465506751E-07
(PID.TID 0000.0001) %MON ke_vol                       =   4.2724824073301E+12
(PID.TID 0000.0001) // =======================================================
(PID.TID 0000.0001) // End MONITOR dynamic field statistics
(PID.TID 0000.0001) // =======================================================
(PID.TID 0000.0001) // =======================================================
(PID.TID 0000.0001) // Begin OBCS MONITOR field statistics
(PID.TID 0000.0001) // =======================================================
(PID.TID 0000.0001) %MON obc_N_vVel_max               =   1.4327551829063E-05
(PID.TID 0000.0001) %MON obc_N_vVel_min               =   1.4327551829063E-05
(PID.TID 0000.0001) %MON obc_N_vVel_mean              =   1.4327551829063E-05
(PID.TID 0000.0001) %MON obc_N_vVel_sd                =  -3.3604212384967E-24
(PID.TID 0000.0001) %MON obc_N_vVel_Int               =   9.4561842071816E+02
(PID.TID 0000.0001) // =======================================================
(PID.TID 0000.0001) // End OBCS MONITOR field statistics
(PID.TID 0000.0001) // =======================================================
 cg2d: Sum(rhs),rhsMax =   4.51548558543628E+00  2.99931578877197E+02
(PID.TID 0000.0001)      cg2d_init_res =   6.32773580782437E-06
(PID.TID 0000.0001)      cg2d_iters(min,last) =      -1      82
(PID.TID 0000.0001)      cg2d_last_res =   8.54418708873096E-12
(PID.TID 0000.0001) // =======================================================
(PID.TID 0000.0001) // Begin MONITOR dynamic field statistics
(PID.TID 0000.0001) // =======================================================
(PID.TID 0000.0001) %MON time_tsnumber                =                  1019
(PID.TID 0000.0001) %MON time_secondsf                =   1.0190000000000E+05
(PID.TID 0000.0001) %MON dynstat_eta_max              =   5.7957537679849E+00
(PID.TID 0000.0001) %MON dynstat_eta_min              =  -1.4199601233661E+01
(PID.TID 0000.0001) %MON dynstat_eta_mean             =  -2.5080309648836E+00
(PID.TID 0000.0001) %MON dynstat_eta_sd               =   4.9513104477455E+00
(PID.TID 0000.0001) %MON dynstat_eta_del2             =   2.0714976258250E-01
(PID.TID 0000.0001) %MON dynstat_uvel_max             =   4.7848058386890E-03
(PID.TID 0000.0001) %MON dynstat_uvel_min             =  -2.1110147817762E-02
(PID.TID 0000.0001) %MON dynstat_uvel_mean            =  -1.1589181259479E-07
(PID.TID 0000.0001) %MON dynstat_uvel_sd              =   6.2994358561735E-04
(PID.TID 0000.0001) %MON dynstat_uvel_del2            =   9.3281096472903E-07
(PID.TID 0000.0001) %MON dynstat_vvel_max             =   1.6904162395519E-02
(PID.TID 0000.0001) %MON dynstat_vvel_min             =  -7.0464228071474E-03
(PID.TID 0000.0001) %MON dynstat_vvel_mean            =   1.4520523997013E-05
(PID.TID 0000.0001) %MON dynstat_vvel_sd              =   3.9138072432533E-04
(PID.TID 0000.0001) %MON dynstat_vvel_del2            =   7.8470591853978E-07
(PID.TID 0000.0001) %MON dynstat_wvel_max             =   8.3840536110575E-04
(PID.TID 0000.0001) %MON dynstat_wvel_min             =  -8.1678491412259E-04
(PID.TID 0000.0001) %MON dynstat_wvel_mean            =   6.2600996995752E-09
(PID.TID 0000.0001) %MON dynstat_wvel_sd              =   1.7962501190703E-05
(PID.TID 0000.0001) %MON dynstat_wvel_del2            =   7.9744886808627E-08
(PID.TID 0000.0001) %MON dynstat_theta_max            =   1.2000000000000E+00
(PID.TID 0000.0001) %MON dynstat_theta_min            =  -1.0000000000000E+00
(PID.TID 0000.0001) %MON dynstat_theta_mean           =   5.6876574069150E-01
(PID.TID 0000.0001) %MON dynstat_theta_sd             =   8.6840147728934E-01
(PID.TID 0000.0001) %MON dynstat_theta_del2           =   2.4911800154137E-06
(PID.TID 0000.0001) %MON dynstat_salt_max             =   3.4700000000000E+01
(PID.TID 0000.0001) %MON dynstat_salt_min             =   3.4000000000000E+01
(PID.TID 0000.0001) %MON dynstat_salt_mean            =   3.4499120472267E+01
(PID.TID 0000.0001) %MON dynstat_salt_sd              =   2.7629774606806E-01
(PID.TID 0000.0001) %MON dynstat_salt_del2            =   9.8182615495411E-07
(PID.TID 0000.0001) %MON advcfl_uvel_max              =   2.1110147817762E-03
(PID.TID 0000.0001) %MON advcfl_vvel_max              =   1.6904162395519E-03
(PID.TID 0000.0001) %MON advcfl_wvel_max              =   4.1920268055288E-03
(PID.TID 0000.0001) %MON advcfl_W_hf_max              =   4.1920268055288E-03
(PID.TID 0000.0001) %MON pe_b_mean                    =  -8.3104277424296E-01
(PID.TID 0000.0001) %MON ke_max                       =   1.5729960577537E-04
(PID.TID 0000.0001) %MON ke_mean                      =   2.7117089931311E-07
(PID.TID 0000.0001) %MON ke_vol                       =   4.2724823516178E+12
(PID.TID 0000.0001) // =======================================================
(PID.TID 0000.0001) // End MONITOR dynamic field statistics
(PID.TID 0000.0001) // =======================================================
(PID.TID 0000.0001) // =======================================================
(PID.TID 0000.0001) // Begin OBCS MONITOR field statistics
(PID.TID 0000.0001) // =======================================================
(PID.TID 0000.0001) %MON obc_N_vVel_max               =   1.4314336803151E-05
(PID.TID 0000.0001) %MON obc_N_vVel_min               =   1.4314336803150E-05
(PID.TID 0000.0001) %MON obc_N_vVel_mean              =   1.4314336803150E-05
(PID.TID 0000.0001) %MON obc_N_vVel_sd                =   3.7048654887258E-12
(PID.TID 0000.0001) %MON obc_N_vVel_Int               =   9.4474622900792E+02
(PID.TID 0000.0001) // =======================================================
(PID.TID 0000.0001) // End OBCS MONITOR field statistics
(PID.TID 0000.0001) // =======================================================
 cg2d: Sum(rhs),rhsMax =   4.51550152369228E+00  2.99931635894521E+02
(PID.TID 0000.0001)      cg2d_init_res =   6.34428710365977E-06
(PID.TID 0000.0001)      cg2d_iters(min,last) =      -1      82
(PID.TID 0000.0001)      cg2d_last_res =   8.56860148821338E-12
(PID.TID 0000.0001) // =======================================================
(PID.TID 0000.0001) // Begin MONITOR dynamic field statistics
(PID.TID 0000.0001) // =======================================================
(PID.TID 0000.0001) %MON time_tsnumber                =                  1020
(PID.TID 0000.0001) %MON time_secondsf                =   1.0200000000000E+05
(PID.TID 0000.0001) %MON dynstat_eta_max              =   5.7957540481193E+00
(PID.TID 0000.0001) %MON dynstat_eta_min              =  -1.4199621350722E+01
(PID.TID 0000.0001) %MON dynstat_eta_mean             =  -2.5080402942319E+00
(PID.TID 0000.0001) %MON dynstat_eta_sd               =   4.9513137916281E+00
(PID.TID 0000.0001) %MON dynstat_eta_del2             =   2.0714979023223E-01
(PID.TID 0000.0001) %MON dynstat_uvel_max             =   4.7969153793872E-03
(PID.TID 0000.0001) %MON dynstat_uvel_min             =  -2.1168958106802E-02
(PID.TID 0000.0001) %MON dynstat_uvel_mean            =  -1.1612509918758E-07
(PID.TID 0000.0001) %MON dynstat_uvel_sd              =   6.3153324141059E-04
(PID.TID 0000.0001) %MON dynstat_uvel_del2            =   9.3495318114167E-07
(PID.TID 0000.0001) %MON dynstat_vvel_max             =   1.6945592071759E-02
(PID.TID 0000.0001) %MON dynstat_vvel_min             =  -7.0587843897396E-03
(PID.TID 0000.0001) %MON dynstat_vvel_mean            =   1.4514406438630E-05
(PID.TID 0000.0001) %MON dynstat_vvel_sd              =   3.9211309403835E-04
(PID.TID 0000.0001) %MON dynstat_vvel_del2            =   7.8575042316469E-07
(PID.TID 0000.0001) %MON dynstat_wvel_max             =   8.4066708707498E-04
(PID.TID 0000.0001) %MON dynstat_wvel_min             =  -8.1891223204415E-04
(PID.TID 0000.0001) %MON dynstat_wvel_mean            =   6.2940238832391E-09
(PID.TID 0000.0001) %MON dynstat_wvel_sd              =   1.7797949210448E-05
(PID.TID 0000.0001) %MON dynstat_wvel_del2            =   7.8952343050694E-08
(PID.TID 0000.0001) %MON dynstat_theta_max            =   1.2000000000000E+00
(PID.TID 0000.0001) %MON dynstat_theta_min            =  -1.0000000000000E+00
(PID.TID 0000.0001) %MON dynstat_theta_mean           =   5.6876495699355E-01
(PID.TID 0000.0001) %MON dynstat_theta_sd             =   8.6840105371138E-01
(PID.TID 0000.0001) %MON dynstat_theta_del2           =   2.4970717871057E-06
(PID.TID 0000.0001) %MON dynstat_salt_max             =   3.4700000000000E+01
(PID.TID 0000.0001) %MON dynstat_salt_min             =   3.4000000000000E+01
(PID.TID 0000.0001) %MON dynstat_salt_mean            =   3.4499120158763E+01
(PID.TID 0000.0001) %MON dynstat_salt_sd              =   2.7629758320827E-01
(PID.TID 0000.0001) %MON dynstat_salt_del2            =   9.8409163491152E-07
(PID.TID 0000.0001) %MON advcfl_uvel_max              =   2.1168958106802E-03
(PID.TID 0000.0001) %MON advcfl_vvel_max              =   1.6945592071759E-03
(PID.TID 0000.0001) %MON advcfl_wvel_max              =   4.2033354353749E-03
(PID.TID 0000.0001) %MON advcfl_W_hf_max              =   4.2033354353749E-03
(PID.TID 0000.0001) %MON pe_b_mean                    =  -8.3104522043859E-01
(PID.TID 0000.0001) %MON ke_max                       =   1.5821595897825E-04
(PID.TID 0000.0001) %MON ke_mean                      =   2.7244048269702E-07
(PID.TID 0000.0001) %MON ke_vol                       =   4.2724822960686E+12
(PID.TID 0000.0001) // =======================================================
(PID.TID 0000.0001) // End MONITOR dynamic field statistics
(PID.TID 0000.0001) // =======================================================
(PID.TID 0000.0001) // =======================================================
(PID.TID 0000.0001) // Begin OBCS MONITOR field statistics
(PID.TID 0000.0001) // =======================================================
(PID.TID 0000.0001) %MON obc_N_vVel_max               =   1.4305717862460E-05
(PID.TID 0000.0001) %MON obc_N_vVel_min               =   1.4305717862460E-05
(PID.TID 0000.0001) %MON obc_N_vVel_mean              =   1.4305717862460E-05
(PID.TID 0000.0001) %MON obc_N_vVel_sd                =   3.4855724417766E-12
(PID.TID 0000.0001) %MON obc_N_vVel_Int               =   9.4417737892233E+02
(PID.TID 0000.0001) // =======================================================
(PID.TID 0000.0001) // End OBCS MONITOR field statistics
(PID.TID 0000.0001) // =======================================================
 cg2d: Sum(rhs),rhsMax =   4.51551741375117E+00  2.99931694061883E+02
(PID.TID 0000.0001)      cg2d_init_res =   6.36510015262040E-06
(PID.TID 0000.0001)      cg2d_iters(min,last) =      -1      82
(PID.TID 0000.0001)      cg2d_last_res =   8.59311224917363E-12
(PID.TID 0000.0001) // =======================================================
(PID.TID 0000.0001) // Begin MONITOR dynamic field statistics
(PID.TID 0000.0001) // =======================================================
(PID.TID 0000.0001) %MON time_tsnumber                =                  1021
(PID.TID 0000.0001) %MON time_secondsf                =   1.0210000000000E+05
(PID.TID 0000.0001) %MON dynstat_eta_max              =   5.7957543764942E+00
(PID.TID 0000.0001) %MON dynstat_eta_min              =  -1.4199641454751E+01
(PID.TID 0000.0001) %MON dynstat_eta_mean             =  -2.5080496064302E+00
(PID.TID 0000.0001) %MON dynstat_eta_sd               =   4.9513171348983E+00
(PID.TID 0000.0001) %MON dynstat_eta_del2             =   2.0714981794276E-01
(PID.TID 0000.0001) %MON dynstat_uvel_max             =   4.8090485613592E-03
(PID.TID 0000.0001) %MON dynstat_uvel_min             =  -2.1227880127619E-02
(PID.TID 0000.0001) %MON dynstat_uvel_mean            =  -1.1635865397690E-07
(PID.TID 0000.0001) %MON dynstat_uvel_sd              =   6.3312612951293E-04
(PID.TID 0000.0001) %MON dynstat_uvel_del2            =   9.3710155604802E-07
(PID.TID 0000.0001) %MON dynstat_vvel_max             =   1.6987080925107E-02
(PID.TID 0000.0001) %MON dynstat_vvel_min             =  -7.0711586486052E-03
(PID.TID 0000.0001) %MON dynstat_vvel_mean            =   1.4513539880272E-05
(PID.TID 0000.0001) %MON dynstat_vvel_sd              =   3.9284324370705E-04
(PID.TID 0000.0001) %MON dynstat_vvel_del2            =   7.8679591957022E-07
(PID.TID 0000.0001) %MON dynstat_wvel_max             =   8.4293287830469E-04
(PID.TID 0000.0001) %MON dynstat_wvel_min             =  -8.2104350704245E-04
(PID.TID 0000.0001) %MON dynstat_wvel_mean            =   6.3341446910558E-09
(PID.TID 0000.0001) %MON dynstat_wvel_sd              =   1.7620100554055E-05
(PID.TID 0000.0001) %MON dynstat_wvel_del2            =   7.8116963686917E-08
(PID.TID 0000.0001) %MON dynstat_theta_max            =   1.2000000000000E+00
(PID.TID 0000.0001) %MON dynstat_theta_min            =  -1.0000000000000E+00
(PID.TID 0000.0001) %MON dynstat_theta_mean           =   5.6876417176939E-01
(PID.TID 0000.0001) %MON dynstat_theta_sd             =   8.6840062933909E-01
(PID.TID 0000.0001) %MON dynstat_theta_del2           =   2.5029913370028E-06
(PID.TID 0000.0001) %MON dynstat_salt_max             =   3.4700000000000E+01
(PID.TID 0000.0001) %MON dynstat_salt_min             =   3.4000000000000E+01
(PID.TID 0000.0001) %MON dynstat_salt_mean            =   3.4499119844647E+01
(PID.TID 0000.0001) %MON dynstat_salt_sd              =   2.7629742003790E-01
(PID.TID 0000.0001) %MON dynstat_salt_del2            =   9.8636530600622E-07
(PID.TID 0000.0001) %MON advcfl_uvel_max              =   2.1227880127619E-03
(PID.TID 0000.0001) %MON advcfl_vvel_max              =   1.6987080925107E-03
(PID.TID 0000.0001) %MON advcfl_wvel_max              =   4.2146643915235E-03
(PID.TID 0000.0001) %MON advcfl_W_hf_max              =   4.2146643915235E-03
(PID.TID 0000.0001) %MON pe_b_mean                    =  -8.3104766234775E-01
(PID.TID 0000.0001) %MON ke_max                       =   1.5913694525073E-04
(PID.TID 0000.0001) %MON ke_mean                      =   2.7371428890385E-07
(PID.TID 0000.0001) %MON ke_vol                       =   4.2724822406523E+12
(PID.TID 0000.0001) // =======================================================
(PID.TID 0000.0001) // End MONITOR dynamic field statistics
(PID.TID 0000.0001) // =======================================================
(PID.TID 0000.0001) // =======================================================
(PID.TID 0000.0001) // Begin OBCS MONITOR field statistics
(PID.TID 0000.0001) // =======================================================
(PID.TID 0000.0001) %MON obc_N_vVel_max               =   1.4301809218062E-05
(PID.TID 0000.0001) %MON obc_N_vVel_min               =   1.4301809218062E-05
(PID.TID 0000.0001) %MON obc_N_vVel_mean              =   1.4301809218062E-05
(PID.TID 0000.0001) %MON obc_N_vVel_sd                =  -6.2555533824323E-24
(PID.TID 0000.0001) %MON obc_N_vVel_Int               =   9.4391940839209E+02
(PID.TID 0000.0001) // =======================================================
(PID.TID 0000.0001) // End OBCS MONITOR field statistics
(PID.TID 0000.0001) // =======================================================
 cg2d: Sum(rhs),rhsMax =   4.51553326287952E+00  2.99931753530047E+02
(PID.TID 0000.0001)      cg2d_init_res =   6.39012542253123E-06
(PID.TID 0000.0001)      cg2d_iters(min,last) =      -1      82
(PID.TID 0000.0001)      cg2d_last_res =   8.61773104096587E-12
(PID.TID 0000.0001) // =======================================================
(PID.TID 0000.0001) // Begin MONITOR dynamic field statistics
(PID.TID 0000.0001) // =======================================================
(PID.TID 0000.0001) %MON time_tsnumber                =                  1022
(PID.TID 0000.0001) %MON time_secondsf                =   1.0220000000000E+05
(PID.TID 0000.0001) %MON dynstat_eta_max              =   5.7957547436922E+00
(PID.TID 0000.0001) %MON dynstat_eta_min              =  -1.4199661555258E+01
(PID.TID 0000.0001) %MON dynstat_eta_mean             =  -2.5080589067754E+00
(PID.TID 0000.0001) %MON dynstat_eta_sd               =   4.9513204793386E+00
(PID.TID 0000.0001) %MON dynstat_eta_del2             =   2.0714984571625E-01
(PID.TID 0000.0001) %MON dynstat_uvel_max             =   4.8212054227434E-03
(PID.TID 0000.0001) %MON dynstat_uvel_min             =  -2.1286913905200E-02
(PID.TID 0000.0001) %MON dynstat_uvel_mean            =  -1.1659007940195E-07
(PID.TID 0000.0001) %MON dynstat_uvel_sd              =   6.3472225150520E-04
(PID.TID 0000.0001) %MON dynstat_uvel_del2            =   9.3925608062728E-07
(PID.TID 0000.0001) %MON dynstat_vvel_max             =   1.7028628839690E-02
(PID.TID 0000.0001) %MON dynstat_vvel_min             =  -7.0835455766520E-03
(PID.TID 0000.0001) %MON dynstat_vvel_mean            =   1.4517972523509E-05
(PID.TID 0000.0001) %MON dynstat_vvel_sd              =   3.9357349405045E-04
(PID.TID 0000.0001) %MON dynstat_vvel_del2            =   7.8785801544538E-07
(PID.TID 0000.0001) %MON dynstat_wvel_max             =   8.4520273243271E-04
(PID.TID 0000.0001) %MON dynstat_wvel_min             =  -8.2317873661224E-04
(PID.TID 0000.0001) %MON dynstat_wvel_mean            =   6.3801423163354E-09
(PID.TID 0000.0001) %MON dynstat_wvel_sd              =   1.7434909112495E-05
(PID.TID 0000.0001) %MON dynstat_wvel_del2            =   7.7260501128534E-08
(PID.TID 0000.0001) %MON dynstat_theta_max            =   1.2000000000000E+00
(PID.TID 0000.0001) %MON dynstat_theta_min            =  -1.0000000000000E+00
(PID.TID 0000.0001) %MON dynstat_theta_mean           =   5.6876338501705E-01
(PID.TID 0000.0001) %MON dynstat_theta_sd             =   8.6840020416841E-01
(PID.TID 0000.0001) %MON dynstat_theta_del2           =   2.5089184319579E-06
(PID.TID 0000.0001) %MON dynstat_salt_max             =   3.4700000000000E+01
(PID.TID 0000.0001) %MON dynstat_salt_min             =   3.4000000000000E+01
(PID.TID 0000.0001) %MON dynstat_salt_mean            =   3.4499119529919E+01
(PID.TID 0000.0001) %MON dynstat_salt_sd              =   2.7629725655551E-01
(PID.TID 0000.0001) %MON dynstat_salt_del2            =   9.8864183729640E-07
(PID.TID 0000.0001) %MON advcfl_uvel_max              =   2.1286913905200E-03
(PID.TID 0000.0001) %MON advcfl_vvel_max              =   1.7028628839690E-03
(PID.TID 0000.0001) %MON advcfl_wvel_max              =   4.2260136621635E-03
(PID.TID 0000.0001) %MON advcfl_W_hf_max              =   4.2260136621635E-03
(PID.TID 0000.0001) %MON pe_b_mean                    =  -8.3105010132467E-01
(PID.TID 0000.0001) %MON ke_max                       =   1.6006258322173E-04
(PID.TID 0000.0001) %MON ke_mean                      =   2.7499324316357E-07
(PID.TID 0000.0001) %MON ke_vol                       =   4.2724821853378E+12
(PID.TID 0000.0001) // =======================================================
(PID.TID 0000.0001) // End MONITOR dynamic field statistics
(PID.TID 0000.0001) // =======================================================
(PID.TID 0000.0001) // =======================================================
(PID.TID 0000.0001) // Begin OBCS MONITOR field statistics
(PID.TID 0000.0001) // =======================================================
(PID.TID 0000.0001) %MON obc_N_vVel_max               =   1.4302682001307E-05
(PID.TID 0000.0001) %MON obc_N_vVel_min               =   1.4302682001307E-05
(PID.TID 0000.0001) %MON obc_N_vVel_mean              =   1.4302682001307E-05
(PID.TID 0000.0001) %MON obc_N_vVel_sd                =   1.7390742119435E-12
(PID.TID 0000.0001) %MON obc_N_vVel_Int               =   9.4397701208626E+02
(PID.TID 0000.0001) // =======================================================
(PID.TID 0000.0001) // End OBCS MONITOR field statistics
(PID.TID 0000.0001) // =======================================================
 cg2d: Sum(rhs),rhsMax =   4.51554907852878E+00  2.99931814440914E+02
(PID.TID 0000.0001)      cg2d_init_res =   6.41922691721866E-06
(PID.TID 0000.0001)      cg2d_iters(min,last) =      -1      82
(PID.TID 0000.0001)      cg2d_last_res =   8.64235039648897E-12
(PID.TID 0000.0001) // =======================================================
(PID.TID 0000.0001) // Begin MONITOR dynamic field statistics
(PID.TID 0000.0001) // =======================================================
(PID.TID 0000.0001) %MON time_tsnumber                =                  1023
(PID.TID 0000.0001) %MON time_secondsf                =   1.0230000000000E+05
(PID.TID 0000.0001) %MON dynstat_eta_max              =   5.7957551403224E+00
(PID.TID 0000.0001) %MON dynstat_eta_min              =  -1.4199681661762E+01
(PID.TID 0000.0001) %MON dynstat_eta_mean             =  -2.5080682005928E+00
(PID.TID 0000.0001) %MON dynstat_eta_sd               =   4.9513238266986E+00
(PID.TID 0000.0001) %MON dynstat_eta_del2             =   2.0714987355474E-01
(PID.TID 0000.0001) %MON dynstat_uvel_max             =   4.8333860054335E-03
(PID.TID 0000.0001) %MON dynstat_uvel_min             =  -2.1346059461471E-02
(PID.TID 0000.0001) %MON dynstat_uvel_mean            =  -1.1681696543703E-07
(PID.TID 0000.0001) %MON dynstat_uvel_sd              =   6.3632160807240E-04
(PID.TID 0000.0001) %MON dynstat_uvel_del2            =   9.4141674080020E-07
(PID.TID 0000.0001) %MON dynstat_vvel_max             =   1.7070235689293E-02
(PID.TID 0000.0001) %MON dynstat_vvel_min             =  -7.0959451718169E-03
(PID.TID 0000.0001) %MON dynstat_vvel_mean            =   1.4527702774131E-05
(PID.TID 0000.0001) %MON dynstat_vvel_sd              =   3.9430618038126E-04
(PID.TID 0000.0001) %MON dynstat_vvel_del2            =   7.8895152904846E-07
(PID.TID 0000.0001) %MON dynstat_wvel_max             =   8.4747664707184E-04
(PID.TID 0000.0001) %MON dynstat_wvel_min             =  -8.2531791778227E-04
(PID.TID 0000.0001) %MON dynstat_wvel_mean            =   6.4316357270788E-09
(PID.TID 0000.0001) %MON dynstat_wvel_sd              =   1.7248619507176E-05
(PID.TID 0000.0001) %MON dynstat_wvel_del2            =   7.6404320692257E-08
(PID.TID 0000.0001) %MON dynstat_theta_max            =   1.2000000000000E+00
(PID.TID 0000.0001) %MON dynstat_theta_min            =  -1.0000000000000E+00
(PID.TID 0000.0001) %MON dynstat_theta_mean           =   5.6876259673436E-01
(PID.TID 0000.0001) %MON dynstat_theta_sd             =   8.6839977819334E-01
(PID.TID 0000.0001) %MON dynstat_theta_del2           =   2.5148331764022E-06
(PID.TID 0000.0001) %MON dynstat_salt_max             =   3.4700000000000E+01
(PID.TID 0000.0001) %MON dynstat_salt_min             =   3.4000000000000E+01
(PID.TID 0000.0001) %MON dynstat_salt_mean            =   3.4499119214578E+01
(PID.TID 0000.0001) %MON dynstat_salt_sd              =   2.7629709275922E-01
(PID.TID 0000.0001) %MON dynstat_salt_del2            =   9.9091600661255E-07
(PID.TID 0000.0001) %MON advcfl_uvel_max              =   2.1346059461471E-03
(PID.TID 0000.0001) %MON advcfl_vvel_max              =   1.7070235689293E-03
(PID.TID 0000.0001) %MON advcfl_wvel_max              =   4.2373832353592E-03
(PID.TID 0000.0001) %MON advcfl_W_hf_max              =   4.2373832353592E-03
(PID.TID 0000.0001) %MON pe_b_mean                    =  -8.3105253871906E-01
(PID.TID 0000.0001) %MON ke_max                       =   1.6099289153792E-04
(PID.TID 0000.0001) %MON ke_mean                      =   2.7627828209116E-07
(PID.TID 0000.0001) %MON ke_vol                       =   4.2724821300938E+12
(PID.TID 0000.0001) // =======================================================
(PID.TID 0000.0001) // End MONITOR dynamic field statistics
(PID.TID 0000.0001) // =======================================================
(PID.TID 0000.0001) // =======================================================
(PID.TID 0000.0001) // Begin OBCS MONITOR field statistics
(PID.TID 0000.0001) // =======================================================
(PID.TID 0000.0001) %MON obc_N_vVel_max               =   1.4308362899998E-05
(PID.TID 0000.0001) %MON obc_N_vVel_min               =   1.4308362899998E-05
(PID.TID 0000.0001) %MON obc_N_vVel_mean              =   1.4308362899998E-05
(PID.TID 0000.0001) %MON obc_N_vVel_sd                =  -6.8759388418470E-24
(PID.TID 0000.0001) %MON obc_N_vVel_Int               =   9.4435195139989E+02
(PID.TID 0000.0001) // =======================================================
(PID.TID 0000.0001) // End OBCS MONITOR field statistics
(PID.TID 0000.0001) // =======================================================
 cg2d: Sum(rhs),rhsMax =   4.51556486827065E+00  2.99931876926042E+02
(PID.TID 0000.0001)      cg2d_init_res =   6.45222847672037E-06
(PID.TID 0000.0001)      cg2d_iters(min,last) =      -1      82
(PID.TID 0000.0001)      cg2d_last_res =   8.66694754164400E-12
(PID.TID 0000.0001) // =======================================================
(PID.TID 0000.0001) // Begin MONITOR dynamic field statistics
(PID.TID 0000.0001) // =======================================================
(PID.TID 0000.0001) %MON time_tsnumber                =                  1024
(PID.TID 0000.0001) %MON time_secondsf                =   1.0240000000000E+05
(PID.TID 0000.0001) %MON dynstat_eta_max              =   5.7957555571278E+00
(PID.TID 0000.0001) %MON dynstat_eta_min              =  -1.4199701783675E+01
(PID.TID 0000.0001) %MON dynstat_eta_mean             =  -2.5080774931884E+00
(PID.TID 0000.0001) %MON dynstat_eta_sd               =   4.9513271786779E+00
(PID.TID 0000.0001) %MON dynstat_eta_del2             =   2.0714990146003E-01
(PID.TID 0000.0001) %MON dynstat_uvel_max             =   4.8455903548259E-03
(PID.TID 0000.0001) %MON dynstat_uvel_min             =  -2.1405316815447E-02
(PID.TID 0000.0001) %MON dynstat_uvel_mean            =  -1.1703691985202E-07
(PID.TID 0000.0001) %MON dynstat_uvel_sd              =   6.3792419924631E-04
(PID.TID 0000.0001) %MON dynstat_uvel_del2            =   9.4358351920536E-07
(PID.TID 0000.0001) %MON dynstat_vvel_max             =   1.7111901337017E-02
(PID.TID 0000.0001) %MON dynstat_vvel_min             =  -7.1083574369215E-03
(PID.TID 0000.0001) %MON dynstat_vvel_mean            =   1.4542678567402E-05
(PID.TID 0000.0001) %MON dynstat_vvel_sd              =   3.9504357589824E-04
(PID.TID 0000.0001) %MON dynstat_vvel_del2            =   7.9009019109142E-07
(PID.TID 0000.0001) %MON dynstat_wvel_max             =   8.4975461983016E-04
(PID.TID 0000.0001) %MON dynstat_wvel_min             =  -8.2746104699042E-04
(PID.TID 0000.0001) %MON dynstat_wvel_mean            =   6.4881862674774E-09
(PID.TID 0000.0001) %MON dynstat_wvel_sd              =   1.7067621580334E-05
(PID.TID 0000.0001) %MON dynstat_wvel_del2            =   7.5569419633669E-08
(PID.TID 0000.0001) %MON dynstat_theta_max            =   1.2000000000000E+00
(PID.TID 0000.0001) %MON dynstat_theta_min            =  -1.0000000000000E+00
(PID.TID 0000.0001) %MON dynstat_theta_mean           =   5.6876180691932E-01
(PID.TID 0000.0001) %MON dynstat_theta_sd             =   8.6839935141053E-01
(PID.TID 0000.0001) %MON dynstat_theta_del2           =   2.5207166271162E-06
(PID.TID 0000.0001) %MON dynstat_salt_max             =   3.4700000000000E+01
(PID.TID 0000.0001) %MON dynstat_salt_min             =   3.4000000000000E+01
(PID.TID 0000.0001) %MON dynstat_salt_mean            =   3.4499118898622E+01
(PID.TID 0000.0001) %MON dynstat_salt_sd              =   2.7629692864814E-01
(PID.TID 0000.0001) %MON dynstat_salt_del2            =   9.9318281098176E-07
(PID.TID 0000.0001) %MON advcfl_uvel_max              =   2.1405316815447E-03
(PID.TID 0000.0001) %MON advcfl_vvel_max              =   1.7111901337017E-03
(PID.TID 0000.0001) %MON advcfl_wvel_max              =   4.2487730991508E-03
(PID.TID 0000.0001) %MON advcfl_W_hf_max              =   4.2487730991508E-03
(PID.TID 0000.0001) %MON pe_b_mean                    =  -8.3105497586338E-01
(PID.TID 0000.0001) %MON ke_max                       =   1.6192788886829E-04
(PID.TID 0000.0001) %MON ke_mean                      =   2.7757032360243E-07
(PID.TID 0000.0001) %MON ke_vol                       =   4.2724820748885E+12
(PID.TID 0000.0001) // =======================================================
(PID.TID 0000.0001) // End MONITOR dynamic field statistics
(PID.TID 0000.0001) // =======================================================
(PID.TID 0000.0001) // =======================================================
(PID.TID 0000.0001) // Begin OBCS MONITOR field statistics
(PID.TID 0000.0001) // =======================================================
(PID.TID 0000.0001) %MON obc_N_vVel_max               =   1.4318833208876E-05
(PID.TID 0000.0001) %MON obc_N_vVel_min               =   1.4318833208876E-05
(PID.TID 0000.0001) %MON obc_N_vVel_mean              =   1.4318833208876E-05
(PID.TID 0000.0001) %MON obc_N_vVel_sd                =   3.1751005835233E-12
(PID.TID 0000.0001) %MON obc_N_vVel_Int               =   9.4504299178579E+02
(PID.TID 0000.0001) // =======================================================
(PID.TID 0000.0001) // End OBCS MONITOR field statistics
(PID.TID 0000.0001) // =======================================================
 cg2d: Sum(rhs),rhsMax =   4.51558063971770E+00  2.99931941105515E+02
(PID.TID 0000.0001)      cg2d_init_res =   6.48890406527428E-06
(PID.TID 0000.0001)      cg2d_iters(min,last) =      -1      82
(PID.TID 0000.0001)      cg2d_last_res =   8.69151166366014E-12
(PID.TID 0000.0001) // =======================================================
(PID.TID 0000.0001) // Begin MONITOR dynamic field statistics
(PID.TID 0000.0001) // =======================================================
(PID.TID 0000.0001) %MON time_tsnumber                =                  1025
(PID.TID 0000.0001) %MON time_secondsf                =   1.0250000000000E+05
(PID.TID 0000.0001) %MON dynstat_eta_max              =   5.7957559850400E+00
(PID.TID 0000.0001) %MON dynstat_eta_min              =  -1.4199721930232E+01
(PID.TID 0000.0001) %MON dynstat_eta_mean             =  -2.5080867897945E+00
(PID.TID 0000.0001) %MON dynstat_eta_sd               =   4.9513305369121E+00
(PID.TID 0000.0001) %MON dynstat_eta_del2             =   2.0714992943389E-01
(PID.TID 0000.0001) %MON dynstat_uvel_max             =   4.8578185198558E-03
(PID.TID 0000.0001) %MON dynstat_uvel_min             =  -2.1464685983410E-02
(PID.TID 0000.0001) %MON dynstat_uvel_mean            =  -1.1724757574406E-07
(PID.TID 0000.0001) %MON dynstat_uvel_sd              =   6.3953002464790E-04
(PID.TID 0000.0001) %MON dynstat_uvel_del2            =   9.4575639686846E-07
(PID.TID 0000.0001) %MON dynstat_vvel_max             =   1.7153625635197E-02
(PID.TID 0000.0001) %MON dynstat_vvel_min             =  -7.1207823799053E-03
(PID.TID 0000.0001) %MON dynstat_vvel_mean            =   1.4562797194673E-05
(PID.TID 0000.0001) %MON dynstat_vvel_sd              =   3.9578781798930E-04
(PID.TID 0000.0001) %MON dynstat_vvel_del2            =   7.9128639975279E-07
(PID.TID 0000.0001) %MON dynstat_wvel_max             =   8.5203664826872E-04
(PID.TID 0000.0001) %MON dynstat_wvel_min             =  -8.2960812010333E-04
(PID.TID 0000.0001) %MON dynstat_wvel_mean            =   6.5493010876954E-09
(PID.TID 0000.0001) %MON dynstat_wvel_sd              =   1.6898283937973E-05
(PID.TID 0000.0001) %MON dynstat_wvel_del2            =   7.4776531295383E-08
(PID.TID 0000.0001) %MON dynstat_theta_max            =   1.2000000000000E+00
(PID.TID 0000.0001) %MON dynstat_theta_min            =  -1.0000000000000E+00
(PID.TID 0000.0001) %MON dynstat_theta_mean           =   5.6876101556975E-01
(PID.TID 0000.0001) %MON dynstat_theta_sd             =   8.6839892382221E-01
(PID.TID 0000.0001) %MON dynstat_theta_del2           =   2.5265508744815E-06
(PID.TID 0000.0001) %MON dynstat_salt_max             =   3.4700000000000E+01
(PID.TID 0000.0001) %MON dynstat_salt_min             =   3.4000000000000E+01
(PID.TID 0000.0001) %MON dynstat_salt_mean            =   3.4499118582051E+01
(PID.TID 0000.0001) %MON dynstat_salt_sd              =   2.7629676422293E-01
(PID.TID 0000.0001) %MON dynstat_salt_del2            =   9.9543756777534E-07
(PID.TID 0000.0001) %MON advcfl_uvel_max              =   2.1464685983410E-03
(PID.TID 0000.0001) %MON advcfl_vvel_max              =   1.7153625635197E-03
(PID.TID 0000.0001) %MON advcfl_wvel_max              =   4.2601832413436E-03
(PID.TID 0000.0001) %MON advcfl_W_hf_max              =   4.2601832413436E-03
(PID.TID 0000.0001) %MON pe_b_mean                    =  -8.3105741405929E-01
(PID.TID 0000.0001) %MON ke_max                       =   1.6286759390570E-04
(PID.TID 0000.0001) %MON ke_mean                      =   2.7887023774064E-07
(PID.TID 0000.0001) %MON ke_vol                       =   4.2724820196905E+12
(PID.TID 0000.0001) // =======================================================
(PID.TID 0000.0001) // End MONITOR dynamic field statistics
(PID.TID 0000.0001) // =======================================================
(PID.TID 0000.0001) // =======================================================
(PID.TID 0000.0001) // Begin OBCS MONITOR field statistics
(PID.TID 0000.0001) // =======================================================
(PID.TID 0000.0001) %MON obc_N_vVel_max               =   1.4334028451190E-05
(PID.TID 0000.0001) %MON obc_N_vVel_min               =   1.4334028451190E-05
(PID.TID 0000.0001) %MON obc_N_vVel_mean              =   1.4334028451190E-05
(PID.TID 0000.0001) %MON obc_N_vVel_sd                =   5.3323853533396E-13
(PID.TID 0000.0001) %MON obc_N_vVel_Int               =   9.4604587777855E+02
(PID.TID 0000.0001) // =======================================================
(PID.TID 0000.0001) // End OBCS MONITOR field statistics
(PID.TID 0000.0001) // =======================================================
 cg2d: Sum(rhs),rhsMax =   4.51559640045611E+00  2.99932007086425E+02
(PID.TID 0000.0001)      cg2d_init_res =   6.52898970518927E-06
(PID.TID 0000.0001)      cg2d_iters(min,last) =      -1      82
(PID.TID 0000.0001)      cg2d_last_res =   8.71596063957383E-12
(PID.TID 0000.0001) // =======================================================
(PID.TID 0000.0001) // Begin MONITOR dynamic field statistics
(PID.TID 0000.0001) // =======================================================
(PID.TID 0000.0001) %MON time_tsnumber                =                  1026
(PID.TID 0000.0001) %MON time_secondsf                =   1.0260000000000E+05
(PID.TID 0000.0001) %MON dynstat_eta_max              =   5.7957564153045E+00
(PID.TID 0000.0001) %MON dynstat_eta_min              =  -1.4199742110391E+01
(PID.TID 0000.0001) %MON dynstat_eta_mean             =  -2.5080960955204E+00
(PID.TID 0000.0001) %MON dynstat_eta_sd               =   4.9513339029499E+00
(PID.TID 0000.0001) %MON dynstat_eta_del2             =   2.0714995747784E-01
(PID.TID 0000.0001) %MON dynstat_uvel_max             =   4.8700705527764E-03
(PID.TID 0000.0001) %MON dynstat_uvel_min             =  -2.1524166979057E-02
(PID.TID 0000.0001) %MON dynstat_uvel_mean            =  -1.1744661751217E-07
(PID.TID 0000.0001) %MON dynstat_uvel_sd              =   6.4113908371096E-04
(PID.TID 0000.0001) %MON dynstat_uvel_del2            =   9.4793535447506E-07
(PID.TID 0000.0001) %MON dynstat_vvel_max             =   1.7195408425446E-02
(PID.TID 0000.0001) %MON dynstat_vvel_min             =  -7.1332200136034E-03
(PID.TID 0000.0001) %MON dynstat_vvel_mean            =   1.4587905641669E-05
(PID.TID 0000.0001) %MON dynstat_vvel_sd              =   3.9654083939454E-04
(PID.TID 0000.0001) %MON dynstat_vvel_del2            =   7.9255101499538E-07
(PID.TID 0000.0001) %MON dynstat_wvel_max             =   8.5432272993406E-04
(PID.TID 0000.0001) %MON dynstat_wvel_min             =  -8.3175913251174E-04
(PID.TID 0000.0001) %MON dynstat_wvel_mean            =   6.6144371921746E-09
(PID.TID 0000.0001) %MON dynstat_wvel_sd              =   1.6746763061531E-05
(PID.TID 0000.0001) %MON dynstat_wvel_del2            =   7.4046224129558E-08
(PID.TID 0000.0001) %MON dynstat_theta_max            =   1.2000000000000E+00
(PID.TID 0000.0001) %MON dynstat_theta_min            =  -1.0000000000000E+00
(PID.TID 0000.0001) %MON dynstat_theta_mean           =   5.6876022268346E-01
(PID.TID 0000.0001) %MON dynstat_theta_sd             =   8.6839849543272E-01
(PID.TID 0000.0001) %MON dynstat_theta_del2           =   2.5323196239362E-06
(PID.TID 0000.0001) %MON dynstat_salt_max             =   3.4700000000000E+01
(PID.TID 0000.0001) %MON dynstat_salt_min             =   3.4000000000000E+01
(PID.TID 0000.0001) %MON dynstat_salt_mean            =   3.4499118264865E+01
(PID.TID 0000.0001) %MON dynstat_salt_sd              =   2.7629659948525E-01
(PID.TID 0000.0001) %MON dynstat_salt_del2            =   9.9767601869632E-07
(PID.TID 0000.0001) %MON advcfl_uvel_max              =   2.1524166979057E-03
(PID.TID 0000.0001) %MON advcfl_vvel_max              =   1.7195408425446E-03
(PID.TID 0000.0001) %MON advcfl_wvel_max              =   4.2716136496703E-03
(PID.TID 0000.0001) %MON advcfl_W_hf_max              =   4.2716136496703E-03
(PID.TID 0000.0001) %MON pe_b_mean                    =  -8.3105985456504E-01
(PID.TID 0000.0001) %MON ke_max                       =   1.6381202536943E-04
(PID.TID 0000.0001) %MON ke_mean                      =   2.8017881913664E-07
(PID.TID 0000.0001) %MON ke_vol                       =   4.2724819644686E+12
(PID.TID 0000.0001) // =======================================================
(PID.TID 0000.0001) // End MONITOR dynamic field statistics
(PID.TID 0000.0001) // =======================================================
(PID.TID 0000.0001) // =======================================================
(PID.TID 0000.0001) // Begin OBCS MONITOR field statistics
(PID.TID 0000.0001) // =======================================================
(PID.TID 0000.0001) %MON obc_N_vVel_max               =   1.4353838418979E-05
(PID.TID 0000.0001) %MON obc_N_vVel_min               =   1.4353838418978E-05
(PID.TID 0000.0001) %MON obc_N_vVel_mean              =   1.4353838418978E-05
(PID.TID 0000.0001) %MON obc_N_vVel_sd                =   4.5275346000699E-12
(PID.TID 0000.0001) %MON obc_N_vVel_Int               =   9.4735333565257E+02
(PID.TID 0000.0001) // =======================================================
(PID.TID 0000.0001) // End OBCS MONITOR field statistics
(PID.TID 0000.0001) // =======================================================
 cg2d: Sum(rhs),rhsMax =   4.51561215797515E+00  2.99932074961873E+02
(PID.TID 0000.0001)      cg2d_init_res =   6.57219693398153E-06
(PID.TID 0000.0001)      cg2d_iters(min,last) =      -1      82
(PID.TID 0000.0001)      cg2d_last_res =   8.74020327900153E-12
(PID.TID 0000.0001) // =======================================================
(PID.TID 0000.0001) // Begin MONITOR dynamic field statistics
(PID.TID 0000.0001) // =======================================================
(PID.TID 0000.0001) %MON time_tsnumber                =                  1027
(PID.TID 0000.0001) %MON time_secondsf                =   1.0270000000000E+05
(PID.TID 0000.0001) %MON dynstat_eta_max              =   5.7957568395446E+00
(PID.TID 0000.0001) %MON dynstat_eta_min              =  -1.4199762332747E+01
(PID.TID 0000.0001) %MON dynstat_eta_mean             =  -2.5081054153047E+00
(PID.TID 0000.0001) %MON dynstat_eta_sd               =   4.9513372782456E+00
(PID.TID 0000.0001) %MON dynstat_eta_del2             =   2.0714998559342E-01
(PID.TID 0000.0001) %MON dynstat_uvel_max             =   4.8823465090742E-03
(PID.TID 0000.0001) %MON dynstat_uvel_min             =  -2.1583759813788E-02
(PID.TID 0000.0001) %MON dynstat_uvel_mean            =  -1.1763180355259E-07
(PID.TID 0000.0001) %MON dynstat_uvel_sd              =   6.4275137590292E-04
(PID.TID 0000.0001) %MON dynstat_uvel_del2            =   9.5012037373029E-07
(PID.TID 0000.0001) %MON dynstat_vvel_max             =   1.7237249538845E-02
(PID.TID 0000.0001) %MON dynstat_vvel_min             =  -7.1456703557491E-03
(PID.TID 0000.0001) %MON dynstat_vvel_mean            =   1.4617801441363E-05
(PID.TID 0000.0001) %MON dynstat_vvel_sd              =   3.9730430594317E-04
(PID.TID 0000.0001) %MON dynstat_vvel_del2            =   7.9389317811175E-07
(PID.TID 0000.0001) %MON dynstat_wvel_max             =   8.5661286234535E-04
(PID.TID 0000.0001) %MON dynstat_wvel_min             =  -8.3391407897804E-04
(PID.TID 0000.0001) %MON dynstat_wvel_mean            =   6.6830063309095E-09
(PID.TID 0000.0001) %MON dynstat_wvel_sd              =   1.6618788071212E-05
(PID.TID 0000.0001) %MON dynstat_wvel_del2            =   7.3398895499840E-08
(PID.TID 0000.0001) %MON dynstat_theta_max            =   1.2000000000000E+00
(PID.TID 0000.0001) %MON dynstat_theta_min            =  -1.0000000000000E+00
(PID.TID 0000.0001) %MON dynstat_theta_mean           =   5.6875942825859E-01
(PID.TID 0000.0001) %MON dynstat_theta_sd             =   8.6839806624597E-01
(PID.TID 0000.0001) %MON dynstat_theta_del2           =   2.5380086221485E-06
(PID.TID 0000.0001) %MON dynstat_salt_max             =   3.4700000000000E+01
(PID.TID 0000.0001) %MON dynstat_salt_min             =   3.4000000000000E+01
(PID.TID 0000.0001) %MON dynstat_salt_mean            =   3.4499117947061E+01
(PID.TID 0000.0001) %MON dynstat_salt_sd              =   2.7629643443615E-01
(PID.TID 0000.0001) %MON dynstat_salt_del2            =   9.9989441158547E-07
(PID.TID 0000.0001) %MON advcfl_uvel_max              =   2.1583759813788E-03
(PID.TID 0000.0001) %MON advcfl_vvel_max              =   1.7237249538845E-03
(PID.TID 0000.0001) %MON advcfl_wvel_max              =   4.2830643117267E-03
(PID.TID 0000.0001) %MON advcfl_W_hf_max              =   4.2830643117267E-03
(PID.TID 0000.0001) %MON pe_b_mean                    =  -8.3106229858396E-01
(PID.TID 0000.0001) %MON ke_max                       =   1.6476120200978E-04
(PID.TID 0000.0001) %MON ke_mean                      =   2.8149676179926E-07
(PID.TID 0000.0001) %MON ke_vol                       =   4.2724819091926E+12
(PID.TID 0000.0001) // =======================================================
(PID.TID 0000.0001) // End MONITOR dynamic field statistics
(PID.TID 0000.0001) // =======================================================
(PID.TID 0000.0001) // =======================================================
(PID.TID 0000.0001) // Begin OBCS MONITOR field statistics
(PID.TID 0000.0001) // =======================================================
(PID.TID 0000.0001) %MON obc_N_vVel_max               =   1.4378107656777E-05
(PID.TID 0000.0001) %MON obc_N_vVel_min               =   1.4378107656776E-05
(PID.TID 0000.0001) %MON obc_N_vVel_mean              =   1.4378107656776E-05
(PID.TID 0000.0001) %MON obc_N_vVel_sd                =   1.7903421107830E-12
(PID.TID 0000.0001) %MON obc_N_vVel_Int               =   9.4895510534724E+02
(PID.TID 0000.0001) // =======================================================
(PID.TID 0000.0001) // End OBCS MONITOR field statistics
(PID.TID 0000.0001) // =======================================================
 cg2d: Sum(rhs),rhsMax =   4.51562791959065E+00  2.99932144809976E+02
(PID.TID 0000.0001)      cg2d_init_res =   6.61820028861025E-06
(PID.TID 0000.0001)      cg2d_iters(min,last) =      -1      82
(PID.TID 0000.0001)      cg2d_last_res =   8.76411896016148E-12
(PID.TID 0000.0001) // =======================================================
(PID.TID 0000.0001) // Begin MONITOR dynamic field statistics
(PID.TID 0000.0001) // =======================================================
(PID.TID 0000.0001) %MON time_tsnumber                =                  1028
(PID.TID 0000.0001) %MON time_secondsf                =   1.0280000000000E+05
(PID.TID 0000.0001) %MON dynstat_eta_max              =   5.7957572498607E+00
(PID.TID 0000.0001) %MON dynstat_eta_min              =  -1.4199782605448E+01
(PID.TID 0000.0001) %MON dynstat_eta_mean             =  -2.5081147538641E+00
(PID.TID 0000.0001) %MON dynstat_eta_sd               =   4.9513406641401E+00
(PID.TID 0000.0001) %MON dynstat_eta_del2             =   2.0715001378192E-01
(PID.TID 0000.0001) %MON dynstat_uvel_max             =   4.8946464471982E-03
(PID.TID 0000.0001) %MON dynstat_uvel_min             =  -2.1643464496855E-02
(PID.TID 0000.0001) %MON dynstat_uvel_mean            =  -1.1780098602143E-07
(PID.TID 0000.0001) %MON dynstat_uvel_sd              =   6.4436690091651E-04
(PID.TID 0000.0001) %MON dynstat_uvel_del2            =   9.5231143880533E-07
(PID.TID 0000.0001) %MON dynstat_vvel_max             =   1.7279148796159E-02
(PID.TID 0000.0001) %MON dynstat_vvel_min             =  -7.1581334287680E-03
(PID.TID 0000.0001) %MON dynstat_vvel_mean            =   1.4652234034950E-05
(PID.TID 0000.0001) %MON dynstat_vvel_sd              =   3.9807956248280E-04
(PID.TID 0000.0001) %MON dynstat_vvel_del2            =   7.9532014372646E-07
(PID.TID 0000.0001) %MON dynstat_wvel_max             =   8.5890704298750E-04
(PID.TID 0000.0001) %MON dynstat_wvel_min             =  -8.3607295379948E-04
(PID.TID 0000.0001) %MON dynstat_wvel_mean            =   6.7543796256299E-09
(PID.TID 0000.0001) %MON dynstat_wvel_sd              =   1.6519426429434E-05
(PID.TID 0000.0001) %MON dynstat_wvel_del2            =   7.2854564400116E-08
(PID.TID 0000.0001) %MON dynstat_theta_max            =   1.2000000000000E+00
(PID.TID 0000.0001) %MON dynstat_theta_min            =  -1.0000000000000E+00
(PID.TID 0000.0001) %MON dynstat_theta_mean           =   5.6875863229348E-01
(PID.TID 0000.0001) %MON dynstat_theta_sd             =   8.6839763626275E-01
(PID.TID 0000.0001) %MON dynstat_theta_del2           =   2.5436059285011E-06
(PID.TID 0000.0001) %MON dynstat_salt_max             =   3.4700000000000E+01
(PID.TID 0000.0001) %MON dynstat_salt_min             =   3.4000000000000E+01
(PID.TID 0000.0001) %MON dynstat_salt_mean            =   3.4499117628641E+01
(PID.TID 0000.0001) %MON dynstat_salt_sd              =   2.7629626907603E-01
(PID.TID 0000.0001) %MON dynstat_salt_del2            =   1.0020896111810E-06
(PID.TID 0000.0001) %MON advcfl_uvel_max              =   2.1643464496855E-03
(PID.TID 0000.0001) %MON advcfl_vvel_max              =   1.7279148796159E-03
(PID.TID 0000.0001) %MON advcfl_wvel_max              =   4.2945352149375E-03
(PID.TID 0000.0001) %MON advcfl_W_hf_max              =   4.2945352149375E-03
(PID.TID 0000.0001) %MON pe_b_mean                    =  -8.3106474725154E-01
(PID.TID 0000.0001) %MON ke_max                       =   1.6571514260995E-04
(PID.TID 0000.0001) %MON ke_mean                      =   2.8282463687084E-07
(PID.TID 0000.0001) %MON ke_vol                       =   4.2724818538331E+12
(PID.TID 0000.0001) // =======================================================
(PID.TID 0000.0001) // End MONITOR dynamic field statistics
(PID.TID 0000.0001) // =======================================================
(PID.TID 0000.0001) // =======================================================
(PID.TID 0000.0001) // Begin OBCS MONITOR field statistics
(PID.TID 0000.0001) // =======================================================
(PID.TID 0000.0001) %MON obc_N_vVel_max               =   1.4406636441332E-05
(PID.TID 0000.0001) %MON obc_N_vVel_min               =   1.4406636441331E-05
(PID.TID 0000.0001) %MON obc_N_vVel_mean              =   1.4406636441331E-05
(PID.TID 0000.0001) %MON obc_N_vVel_sd                =   3.1994312120037E-12
(PID.TID 0000.0001) %MON obc_N_vVel_Int               =   9.5083800512786E+02
(PID.TID 0000.0001) // =======================================================
(PID.TID 0000.0001) // End OBCS MONITOR field statistics
(PID.TID 0000.0001) // =======================================================
 cg2d: Sum(rhs),rhsMax =   4.51564369237314E+00  2.99932216692997E+02
(PID.TID 0000.0001)      cg2d_init_res =   6.66667314272043E-06
(PID.TID 0000.0001)      cg2d_iters(min,last) =      -1      82
(PID.TID 0000.0001)      cg2d_last_res =   8.78758088227337E-12
(PID.TID 0000.0001) // =======================================================
(PID.TID 0000.0001) // Begin MONITOR dynamic field statistics
(PID.TID 0000.0001) // =======================================================
(PID.TID 0000.0001) %MON time_tsnumber                =                  1029
(PID.TID 0000.0001) %MON time_secondsf                =   1.0290000000000E+05
(PID.TID 0000.0001) %MON dynstat_eta_max              =   5.7957576389143E+00
(PID.TID 0000.0001) %MON dynstat_eta_min              =  -1.4199802936098E+01
(PID.TID 0000.0001) %MON dynstat_eta_mean             =  -2.5081241156467E+00
(PID.TID 0000.0001) %MON dynstat_eta_sd               =   4.9513440618496E+00
(PID.TID 0000.0001) %MON dynstat_eta_del2             =   2.0715004204462E-01
(PID.TID 0000.0001) %MON dynstat_uvel_max             =   4.9069704283369E-03
(PID.TID 0000.0001) %MON dynstat_uvel_min             =  -2.1703281035694E-02
(PID.TID 0000.0001) %MON dynstat_uvel_mean            =  -1.1795213328807E-07
(PID.TID 0000.0001) %MON dynstat_uvel_sd              =   6.4598565882934E-04
(PID.TID 0000.0001) %MON dynstat_uvel_del2            =   9.5450853748855E-07
(PID.TID 0000.0001) %MON dynstat_vvel_max             =   1.7321106008072E-02
(PID.TID 0000.0001) %MON dynstat_vvel_min             =  -7.1706092595614E-03
(PID.TID 0000.0001) %MON dynstat_vvel_mean            =   1.4690906630644E-05
(PID.TID 0000.0001) %MON dynstat_vvel_sd              =   3.9886758852234E-04
(PID.TID 0000.0001) %MON dynstat_vvel_del2            =   7.9683711679992E-07
(PID.TID 0000.0001) %MON dynstat_wvel_max             =   8.6120526933221E-04
(PID.TID 0000.0001) %MON dynstat_wvel_min             =  -8.3823575073728E-04
(PID.TID 0000.0001) %MON dynstat_wvel_mean            =   6.8278939121004E-09
(PID.TID 0000.0001) %MON dynstat_wvel_sd              =   1.6452842303198E-05
(PID.TID 0000.0001) %MON dynstat_wvel_del2            =   7.2432391436470E-08
(PID.TID 0000.0001) %MON dynstat_theta_max            =   1.2000000000000E+00
(PID.TID 0000.0001) %MON dynstat_theta_min            =  -1.0000000000000E+00
(PID.TID 0000.0001) %MON dynstat_theta_mean           =   5.6875783478675E-01
(PID.TID 0000.0001) %MON dynstat_theta_sd             =   8.6839720547668E-01
(PID.TID 0000.0001) %MON dynstat_theta_del2           =   2.5491021720453E-06
(PID.TID 0000.0001) %MON dynstat_salt_max             =   3.4700000000000E+01
(PID.TID 0000.0001) %MON dynstat_salt_min             =   3.4000000000000E+01
(PID.TID 0000.0001) %MON dynstat_salt_mean            =   3.4499117309603E+01
(PID.TID 0000.0001) %MON dynstat_salt_sd              =   2.7629610340286E-01
(PID.TID 0000.0001) %MON dynstat_salt_del2            =   1.0042591815869E-06
(PID.TID 0000.0001) %MON advcfl_uvel_max              =   2.1703281035694E-03
(PID.TID 0000.0001) %MON advcfl_vvel_max              =   1.7321106008072E-03
(PID.TID 0000.0001) %MON advcfl_wvel_max              =   4.3060263466611E-03
(PID.TID 0000.0001) %MON advcfl_W_hf_max              =   4.3060263466611E-03
(PID.TID 0000.0001) %MON pe_b_mean                    =  -8.3106720162398E-01
(PID.TID 0000.0001) %MON ke_max                       =   1.6667386599119E-04
(PID.TID 0000.0001) %MON ke_mean                      =   2.8416287396885E-07
(PID.TID 0000.0001) %MON ke_vol                       =   4.2724817983620E+12
(PID.TID 0000.0001) // =======================================================
(PID.TID 0000.0001) // End MONITOR dynamic field statistics
(PID.TID 0000.0001) // =======================================================
(PID.TID 0000.0001) // =======================================================
(PID.TID 0000.0001) // Begin OBCS MONITOR field statistics
(PID.TID 0000.0001) // =======================================================
(PID.TID 0000.0001) %MON obc_N_vVel_max               =   1.4439182131147E-05
(PID.TID 0000.0001) %MON obc_N_vVel_min               =   1.4439182131147E-05
(PID.TID 0000.0001) %MON obc_N_vVel_mean              =   1.4439182131147E-05
(PID.TID 0000.0001) %MON obc_N_vVel_sd                =  -7.1861315715544E-24
(PID.TID 0000.0001) %MON obc_N_vVel_Int               =   9.5298602065571E+02
(PID.TID 0000.0001) // =======================================================
(PID.TID 0000.0001) // End OBCS MONITOR field statistics
(PID.TID 0000.0001) // =======================================================
 cg2d: Sum(rhs),rhsMax =   4.51565948307318E+00  2.99932290656661E+02
(PID.TID 0000.0001)      cg2d_init_res =   6.71727045874020E-06
(PID.TID 0000.0001)      cg2d_iters(min,last) =      -1      82
(PID.TID 0000.0001)      cg2d_last_res =   8.81038053118218E-12
(PID.TID 0000.0001) // =======================================================
(PID.TID 0000.0001) // Begin MONITOR dynamic field statistics
(PID.TID 0000.0001) // =======================================================
(PID.TID 0000.0001) %MON time_tsnumber                =                  1030
(PID.TID 0000.0001) %MON time_secondsf                =   1.0300000000000E+05
(PID.TID 0000.0001) %MON dynstat_eta_max              =   5.7957579999945E+00
(PID.TID 0000.0001) %MON dynstat_eta_min              =  -1.4199823331701E+01
(PID.TID 0000.0001) %MON dynstat_eta_mean             =  -2.5081335047845E+00
(PID.TID 0000.0001) %MON dynstat_eta_sd               =   4.9513474724500E+00
(PID.TID 0000.0001) %MON dynstat_eta_del2             =   2.0715007038262E-01
(PID.TID 0000.0001) %MON dynstat_uvel_max             =   4.9193185161727E-03
(PID.TID 0000.0001) %MON dynstat_uvel_min             =  -2.1763209436287E-02
(PID.TID 0000.0001) %MON dynstat_uvel_mean            =  -1.1808335551212E-07
(PID.TID 0000.0001) %MON dynstat_uvel_sd              =   6.4760765022390E-04
(PID.TID 0000.0001) %MON dynstat_uvel_del2            =   9.5671166201082E-07
(PID.TID 0000.0001) %MON dynstat_vvel_max             =   1.7363120975783E-02
(PID.TID 0000.0001) %MON dynstat_vvel_min             =  -7.1830978792446E-03
(PID.TID 0000.0001) %MON dynstat_vvel_mean            =   1.4733478571915E-05
(PID.TID 0000.0001) %MON dynstat_vvel_sd              =   3.9966896500557E-04
(PID.TID 0000.0001) %MON dynstat_vvel_del2            =   7.9844709305670E-07
(PID.TID 0000.0001) %MON dynstat_wvel_max             =   8.6350753880469E-04
(PID.TID 0000.0001) %MON dynstat_wvel_min             =  -8.4040246306366E-04
(PID.TID 0000.0001) %MON dynstat_wvel_mean            =   6.9028581708957E-09
(PID.TID 0000.0001) %MON dynstat_wvel_sd              =   1.6422065705663E-05
(PID.TID 0000.0001) %MON dynstat_wvel_del2            =   7.2149896816541E-08
(PID.TID 0000.0001) %MON dynstat_theta_max            =   1.2000000000000E+00
(PID.TID 0000.0001) %MON dynstat_theta_min            =  -1.0000000000000E+00
(PID.TID 0000.0001) %MON dynstat_theta_mean           =   5.6875703573723E-01
(PID.TID 0000.0001) %MON dynstat_theta_sd             =   8.6839677387463E-01
(PID.TID 0000.0001) %MON dynstat_theta_del2           =   2.5544909397204E-06
(PID.TID 0000.0001) %MON dynstat_salt_max             =   3.4700000000000E+01
(PID.TID 0000.0001) %MON dynstat_salt_min             =   3.4000000000000E+01
(PID.TID 0000.0001) %MON dynstat_salt_mean            =   3.4499116989946E+01
(PID.TID 0000.0001) %MON dynstat_salt_sd              =   2.7629593741243E-01
(PID.TID 0000.0001) %MON dynstat_salt_del2            =   1.0064014622836E-06
(PID.TID 0000.0001) %MON advcfl_uvel_max              =   2.1763209436287E-03
(PID.TID 0000.0001) %MON advcfl_vvel_max              =   1.7363120975783E-03
(PID.TID 0000.0001) %MON advcfl_wvel_max              =   4.3175376940234E-03
(PID.TID 0000.0001) %MON advcfl_W_hf_max              =   4.3175376940234E-03
(PID.TID 0000.0001) %MON pe_b_mean                    =  -8.3106966266680E-01
(PID.TID 0000.0001) %MON ke_max                       =   1.6763739101798E-04
(PID.TID 0000.0001) %MON ke_mean                      =   2.8551174670310E-07
(PID.TID 0000.0001) %MON ke_vol                       =   4.2724817427531E+12
(PID.TID 0000.0001) // =======================================================
(PID.TID 0000.0001) // End MONITOR dynamic field statistics
(PID.TID 0000.0001) // =======================================================
(PID.TID 0000.0001) // =======================================================
(PID.TID 0000.0001) // Begin OBCS MONITOR field statistics
(PID.TID 0000.0001) // =======================================================
(PID.TID 0000.0001) %MON obc_N_vVel_max               =   1.4475461042165E-05
(PID.TID 0000.0001) %MON obc_N_vVel_min               =   1.4475461042165E-05
(PID.TID 0000.0001) %MON obc_N_vVel_mean              =   1.4475461042165E-05
(PID.TID 0000.0001) %MON obc_N_vVel_sd                =   2.4907538204623E-12
(PID.TID 0000.0001) %MON obc_N_vVel_Int               =   9.5538042878289E+02
(PID.TID 0000.0001) // =======================================================
(PID.TID 0000.0001) // End OBCS MONITOR field statistics
(PID.TID 0000.0001) // =======================================================
 cg2d: Sum(rhs),rhsMax =   4.51567529805035E+00  2.99932366729766E+02
(PID.TID 0000.0001)      cg2d_init_res =   6.76964125573802E-06
(PID.TID 0000.0001)      cg2d_iters(min,last) =      -1      82
(PID.TID 0000.0001)      cg2d_last_res =   8.83234022818154E-12
(PID.TID 0000.0001) // =======================================================
(PID.TID 0000.0001) // Begin MONITOR dynamic field statistics
(PID.TID 0000.0001) // =======================================================
(PID.TID 0000.0001) %MON time_tsnumber                =                  1031
(PID.TID 0000.0001) %MON time_secondsf                =   1.0310000000000E+05
(PID.TID 0000.0001) %MON dynstat_eta_max              =   5.7957583271002E+00
(PID.TID 0000.0001) %MON dynstat_eta_min              =  -1.4199843798565E+01
(PID.TID 0000.0001) %MON dynstat_eta_mean             =  -2.5081429250507E+00
(PID.TID 0000.0001) %MON dynstat_eta_sd               =   4.9513508968634E+00
(PID.TID 0000.0001) %MON dynstat_eta_del2             =   2.0715009879678E-01
(PID.TID 0000.0001) %MON dynstat_uvel_max             =   4.9316907765835E-03
(PID.TID 0000.0001) %MON dynstat_uvel_min             =  -2.1823249703334E-02
(PID.TID 0000.0001) %MON dynstat_uvel_mean            =  -1.1819292575520E-07
(PID.TID 0000.0001) %MON dynstat_uvel_sd              =   6.4923287625854E-04
(PID.TID 0000.0001) %MON dynstat_uvel_del2            =   9.5892080938016E-07
(PID.TID 0000.0001) %MON dynstat_vvel_max             =   1.7405193491432E-02
(PID.TID 0000.0001) %MON dynstat_vvel_min             =  -7.1955993228814E-03
(PID.TID 0000.0001) %MON dynstat_vvel_mean            =   1.4779568187232E-05
(PID.TID 0000.0001) %MON dynstat_vvel_sd              =   4.0048385345325E-04
(PID.TID 0000.0001) %MON dynstat_vvel_del2            =   8.0015070771802E-07
(PID.TID 0000.0001) %MON dynstat_wvel_max             =   8.6581384881208E-04
(PID.TID 0000.0001) %MON dynstat_wvel_min             =  -8.4257308361395E-04
(PID.TID 0000.0001) %MON dynstat_wvel_mean            =   6.9785600782316E-09
(PID.TID 0000.0001) %MON dynstat_wvel_sd              =   1.6428794912215E-05
(PID.TID 0000.0001) %MON dynstat_wvel_del2            =   7.2021903777789E-08
(PID.TID 0000.0001) %MON dynstat_theta_max            =   1.2000000000000E+00
(PID.TID 0000.0001) %MON dynstat_theta_min            =  -1.0000000000000E+00
(PID.TID 0000.0001) %MON dynstat_theta_mean           =   5.6875623514383E-01
(PID.TID 0000.0001) %MON dynstat_theta_sd             =   8.6839634144388E-01
(PID.TID 0000.0001) %MON dynstat_theta_del2           =   2.5597690243211E-06
(PID.TID 0000.0001) %MON dynstat_salt_max             =   3.4700000000000E+01
(PID.TID 0000.0001) %MON dynstat_salt_min             =   3.4000000000000E+01
(PID.TID 0000.0001) %MON dynstat_salt_mean            =   3.4499116669670E+01
(PID.TID 0000.0001) %MON dynstat_salt_sd              =   2.7629577110070E-01
(PID.TID 0000.0001) %MON dynstat_salt_del2            =   1.0085155431428E-06
(PID.TID 0000.0001) %MON advcfl_uvel_max              =   2.1823249703334E-03
(PID.TID 0000.0001) %MON advcfl_vvel_max              =   1.7405193491432E-03
(PID.TID 0000.0001) %MON advcfl_wvel_max              =   4.3290692440604E-03
(PID.TID 0000.0001) %MON advcfl_W_hf_max              =   4.3290692440604E-03
(PID.TID 0000.0001) %MON pe_b_mean                    =  -8.3107213124442E-01
(PID.TID 0000.0001) %MON ke_max                       =   1.6860573660106E-04
(PID.TID 0000.0001) %MON ke_mean                      =   2.8687136289752E-07
(PID.TID 0000.0001) %MON ke_vol                       =   4.2724816869816E+12
(PID.TID 0000.0001) // =======================================================
(PID.TID 0000.0001) // End MONITOR dynamic field statistics
(PID.TID 0000.0001) // =======================================================
(PID.TID 0000.0001) // =======================================================
(PID.TID 0000.0001) // Begin OBCS MONITOR field statistics
(PID.TID 0000.0001) // =======================================================
(PID.TID 0000.0001) %MON obc_N_vVel_max               =   1.4515150776867E-05
(PID.TID 0000.0001) %MON obc_N_vVel_min               =   1.4515150776867E-05
(PID.TID 0000.0001) %MON obc_N_vVel_mean              =   1.4515150776867E-05
(PID.TID 0000.0001) %MON obc_N_vVel_sd                =  -8.7887940083759E-25
(PID.TID 0000.0001) %MON obc_N_vVel_Int               =   9.5799995127324E+02
(PID.TID 0000.0001) // =======================================================
(PID.TID 0000.0001) // End OBCS MONITOR field statistics
(PID.TID 0000.0001) // =======================================================
 cg2d: Sum(rhs),rhsMax =   4.51569114321513E+00  2.99932444923488E+02
(PID.TID 0000.0001)      cg2d_init_res =   6.82342869929700E-06
(PID.TID 0000.0001)      cg2d_iters(min,last) =      -1      82
(PID.TID 0000.0001)      cg2d_last_res =   8.85344399831425E-12
(PID.TID 0000.0001) // =======================================================
(PID.TID 0000.0001) // Begin MONITOR dynamic field statistics
(PID.TID 0000.0001) // =======================================================
(PID.TID 0000.0001) %MON time_tsnumber                =                  1032
(PID.TID 0000.0001) %MON time_secondsf                =   1.0320000000000E+05
(PID.TID 0000.0001) %MON dynstat_eta_max              =   5.7957586150063E+00
(PID.TID 0000.0001) %MON dynstat_eta_min              =  -1.4199864342244E+01
(PID.TID 0000.0001) %MON dynstat_eta_mean             =  -2.5081523798219E+00
(PID.TID 0000.0001) %MON dynstat_eta_sd               =   4.9513543358528E+00
(PID.TID 0000.0001) %MON dynstat_eta_del2             =   2.0715012728783E-01
(PID.TID 0000.0001) %MON dynstat_uvel_max             =   4.9440872772522E-03
(PID.TID 0000.0001) %MON dynstat_uvel_min             =  -2.1883401840842E-02
(PID.TID 0000.0001) %MON dynstat_uvel_mean            =  -1.1827930485119E-07
(PID.TID 0000.0001) %MON dynstat_uvel_sd              =   6.5086133873117E-04
(PID.TID 0000.0001) %MON dynstat_uvel_del2            =   9.6113598321903E-07
(PID.TID 0000.0001) %MON dynstat_vvel_max             =   1.7447323338753E-02
(PID.TID 0000.0001) %MON dynstat_vvel_min             =  -7.2081136290141E-03
(PID.TID 0000.0001) %MON dynstat_vvel_mean            =   1.4828756063324E-05
(PID.TID 0000.0001) %MON dynstat_vvel_sd              =   4.0131198846011E-04
(PID.TID 0000.0001) %MON dynstat_vvel_del2            =   8.0194610526274E-07
(PID.TID 0000.0001) %MON dynstat_wvel_max             =   8.6812419672284E-04
(PID.TID 0000.0001) %MON dynstat_wvel_min             =  -8.4474760477026E-04
(PID.TID 0000.0001) %MON dynstat_wvel_mean            =   7.0542719413598E-09
(PID.TID 0000.0001) %MON dynstat_wvel_sd              =   1.6473255565392E-05
(PID.TID 0000.0001) %MON dynstat_wvel_del2            =   7.2059301344414E-08
(PID.TID 0000.0001) %MON dynstat_theta_max            =   1.2000000000000E+00
(PID.TID 0000.0001) %MON dynstat_theta_min            =  -1.0000000000000E+00
(PID.TID 0000.0001) %MON dynstat_theta_mean           =   5.6875543300588E-01
(PID.TID 0000.0001) %MON dynstat_theta_sd             =   8.6839590817606E-01
(PID.TID 0000.0001) %MON dynstat_theta_del2           =   2.5649366543714E-06
(PID.TID 0000.0001) %MON dynstat_salt_max             =   3.4700000000000E+01
(PID.TID 0000.0001) %MON dynstat_salt_min             =   3.4000000000000E+01
(PID.TID 0000.0001) %MON dynstat_salt_mean            =   3.4499116348775E+01
(PID.TID 0000.0001) %MON dynstat_salt_sd              =   2.7629560446506E-01
(PID.TID 0000.0001) %MON dynstat_salt_del2            =   1.0106014819090E-06
(PID.TID 0000.0001) %MON advcfl_uvel_max              =   2.1883401840842E-03
(PID.TID 0000.0001) %MON advcfl_vvel_max              =   1.7447323338753E-03
(PID.TID 0000.0001) %MON advcfl_wvel_max              =   4.3406209836142E-03
(PID.TID 0000.0001) %MON advcfl_W_hf_max              =   4.3406209836142E-03
(PID.TID 0000.0001) %MON pe_b_mean                    =  -8.3107460811146E-01
(PID.TID 0000.0001) %MON ke_max                       =   1.6957892170533E-04
(PID.TID 0000.0001) %MON ke_mean                      =   2.8824165999036E-07
(PID.TID 0000.0001) %MON ke_vol                       =   4.2724816310252E+12
(PID.TID 0000.0001) // =======================================================
(PID.TID 0000.0001) // End MONITOR dynamic field statistics
(PID.TID 0000.0001) // =======================================================
(PID.TID 0000.0001) // =======================================================
(PID.TID 0000.0001) // Begin OBCS MONITOR field statistics
(PID.TID 0000.0001) // =======================================================
(PID.TID 0000.0001) %MON obc_N_vVel_max               =   1.4557892974952E-05
(PID.TID 0000.0001) %MON obc_N_vVel_min               =   1.4557892974952E-05
(PID.TID 0000.0001) %MON obc_N_vVel_mean              =   1.4557892974952E-05
(PID.TID 0000.0001) %MON obc_N_vVel_sd                =  -1.0675799780763E-23
(PID.TID 0000.0001) %MON obc_N_vVel_Int               =   9.6082093634681E+02
(PID.TID 0000.0001) // =======================================================
(PID.TID 0000.0001) // End OBCS MONITOR field statistics
(PID.TID 0000.0001) // =======================================================
 cg2d: Sum(rhs),rhsMax =   4.51570702396399E+00  2.99932525231131E+02
(PID.TID 0000.0001)      cg2d_init_res =   6.87824985973716E-06
(PID.TID 0000.0001)      cg2d_iters(min,last) =      -1      82
(PID.TID 0000.0001)      cg2d_last_res =   8.87339283616636E-12
(PID.TID 0000.0001) // =======================================================
(PID.TID 0000.0001) // Begin MONITOR dynamic field statistics
(PID.TID 0000.0001) // =======================================================
(PID.TID 0000.0001) %MON time_tsnumber                =                  1033
(PID.TID 0000.0001) %MON time_secondsf                =   1.0330000000000E+05
(PID.TID 0000.0001) %MON dynstat_eta_max              =   5.7957588593159E+00
(PID.TID 0000.0001) %MON dynstat_eta_min              =  -1.4199884967477E+01
(PID.TID 0000.0001) %MON dynstat_eta_mean             =  -2.5081618720398E+00
(PID.TID 0000.0001) %MON dynstat_eta_sd               =   4.9513577900096E+00
(PID.TID 0000.0001) %MON dynstat_eta_del2             =   2.0715015585623E-01
(PID.TID 0000.0001) %MON dynstat_uvel_max             =   4.9565080874068E-03
(PID.TID 0000.0001) %MON dynstat_uvel_min             =  -2.1943665852368E-02
(PID.TID 0000.0001) %MON dynstat_uvel_mean            =  -1.1834115417588E-07
(PID.TID 0000.0001) %MON dynstat_uvel_sd              =   6.5249304005247E-04
(PID.TID 0000.0001) %MON dynstat_uvel_del2            =   9.6335719333080E-07
(PID.TID 0000.0001) %MON dynstat_vvel_max             =   1.7489510293767E-02
(PID.TID 0000.0001) %MON dynstat_vvel_min             =  -7.2206408394191E-03
(PID.TID 0000.0001) %MON dynstat_vvel_mean            =   1.4880588768845E-05
(PID.TID 0000.0001) %MON dynstat_vvel_sd              =   4.0215268442995E-04
(PID.TID 0000.0001) %MON dynstat_vvel_del2            =   8.0382884750329E-07
(PID.TID 0000.0001) %MON dynstat_wvel_max             =   8.7043857985894E-04
(PID.TID 0000.0001) %MON dynstat_wvel_min             =  -8.4692601852792E-04
(PID.TID 0000.0001) %MON dynstat_wvel_mean            =   7.1292591749883E-09
(PID.TID 0000.0001) %MON dynstat_wvel_sd              =   1.6554136193384E-05
(PID.TID 0000.0001) %MON dynstat_wvel_del2            =   7.2267776414799E-08
(PID.TID 0000.0001) %MON dynstat_theta_max            =   1.2000000000000E+00
(PID.TID 0000.0001) %MON dynstat_theta_min            =  -1.0000000000000E+00
(PID.TID 0000.0001) %MON dynstat_theta_mean           =   5.6875462932283E-01
(PID.TID 0000.0001) %MON dynstat_theta_sd             =   8.6839547406673E-01
(PID.TID 0000.0001) %MON dynstat_theta_del2           =   2.5699976082471E-06
(PID.TID 0000.0001) %MON dynstat_salt_max             =   3.4700000000000E+01
(PID.TID 0000.0001) %MON dynstat_salt_min             =   3.4000000000000E+01
(PID.TID 0000.0001) %MON dynstat_salt_mean            =   3.4499116027261E+01
(PID.TID 0000.0001) %MON dynstat_salt_sd              =   2.7629543750389E-01
(PID.TID 0000.0001) %MON dynstat_salt_del2            =   1.0126602592375E-06
(PID.TID 0000.0001) %MON advcfl_uvel_max              =   2.1943665852368E-03
(PID.TID 0000.0001) %MON advcfl_vvel_max              =   1.7489510293767E-03
(PID.TID 0000.0001) %MON advcfl_wvel_max              =   4.3521928992947E-03
(PID.TID 0000.0001) %MON advcfl_W_hf_max              =   4.3521928992947E-03
(PID.TID 0000.0001) %MON pe_b_mean                    =  -8.3107709390385E-01
(PID.TID 0000.0001) %MON ke_max                       =   1.7055696535349E-04
(PID.TID 0000.0001) %MON ke_mean                      =   2.8962240598936E-07
(PID.TID 0000.0001) %MON ke_vol                       =   4.2724815748639E+12
(PID.TID 0000.0001) // =======================================================
(PID.TID 0000.0001) // End MONITOR dynamic field statistics
(PID.TID 0000.0001) // =======================================================
(PID.TID 0000.0001) // =======================================================
(PID.TID 0000.0001) // Begin OBCS MONITOR field statistics
(PID.TID 0000.0001) // =======================================================
(PID.TID 0000.0001) %MON obc_N_vVel_max               =   1.4603296360180E-05
(PID.TID 0000.0001) %MON obc_N_vVel_min               =   1.4603296360180E-05
(PID.TID 0000.0001) %MON obc_N_vVel_mean              =   1.4603296360180E-05
(PID.TID 0000.0001) %MON obc_N_vVel_sd                =  -1.4268865566540E-23
(PID.TID 0000.0001) %MON obc_N_vVel_Int               =   9.6381755977191E+02
(PID.TID 0000.0001) // =======================================================
(PID.TID 0000.0001) // End OBCS MONITOR field statistics
(PID.TID 0000.0001) // =======================================================
 cg2d: Sum(rhs),rhsMax =   4.51572294511135E+00  2.99932607628588E+02
(PID.TID 0000.0001)      cg2d_init_res =   6.93370679137402E-06
(PID.TID 0000.0001)      cg2d_iters(min,last) =      -1      82
(PID.TID 0000.0001)      cg2d_last_res =   8.89202044015050E-12
(PID.TID 0000.0001) // =======================================================
(PID.TID 0000.0001) // Begin MONITOR dynamic field statistics
(PID.TID 0000.0001) // =======================================================
(PID.TID 0000.0001) %MON time_tsnumber                =                  1034
(PID.TID 0000.0001) %MON time_secondsf                =   1.0340000000000E+05
(PID.TID 0000.0001) %MON dynstat_eta_max              =   5.7957590565184E+00
(PID.TID 0000.0001) %MON dynstat_eta_min              =  -1.4199905678128E+01
(PID.TID 0000.0001) %MON dynstat_eta_mean             =  -2.5081714041768E+00
(PID.TID 0000.0001) %MON dynstat_eta_sd               =   4.9513612597506E+00
(PID.TID 0000.0001) %MON dynstat_eta_del2             =   2.0715018450238E-01
(PID.TID 0000.0001) %MON dynstat_uvel_max             =   4.9689532773414E-03
(PID.TID 0000.0001) %MON dynstat_uvel_min             =  -2.2004041741369E-02
(PID.TID 0000.0001) %MON dynstat_uvel_mean            =  -1.1837735257077E-07
(PID.TID 0000.0001) %MON dynstat_uvel_sd              =   6.5412798319222E-04
(PID.TID 0000.0001) %MON dynstat_uvel_del2            =   9.6558445564442E-07
(PID.TID 0000.0001) %MON dynstat_vvel_max             =   1.7531754125533E-02
(PID.TID 0000.0001) %MON dynstat_vvel_min             =  -7.2331809984476E-03
(PID.TID 0000.0001) %MON dynstat_vvel_mean            =   1.4934583036049E-05
(PID.TID 0000.0001) %MON dynstat_vvel_sd              =   4.0300485683623E-04
(PID.TID 0000.0001) %MON dynstat_vvel_del2            =   8.0579188053529E-07
(PID.TID 0000.0001) %MON dynstat_wvel_max             =   8.7275699551704E-04
(PID.TID 0000.0001) %MON dynstat_wvel_min             =  -8.4910831655529E-04
(PID.TID 0000.0001) %MON dynstat_wvel_mean            =   7.2027884942284E-09
(PID.TID 0000.0001) %MON dynstat_wvel_sd              =   1.6668612086876E-05
(PID.TID 0000.0001) %MON dynstat_wvel_del2            =   7.2646701113285E-08
(PID.TID 0000.0001) %MON dynstat_theta_max            =   1.2000000000000E+00
(PID.TID 0000.0001) %MON dynstat_theta_min            =  -1.0000000000000E+00
(PID.TID 0000.0001) %MON dynstat_theta_mean           =   5.6875382409413E-01
(PID.TID 0000.0001) %MON dynstat_theta_sd             =   8.6839503911387E-01
(PID.TID 0000.0001) %MON dynstat_theta_del2           =   2.5749592687819E-06
(PID.TID 0000.0001) %MON dynstat_salt_max             =   3.4700000000000E+01
(PID.TID 0000.0001) %MON dynstat_salt_min             =   3.4000000000000E+01
(PID.TID 0000.0001) %MON dynstat_salt_mean            =   3.4499115705126E+01
(PID.TID 0000.0001) %MON dynstat_salt_sd              =   2.7629527021672E-01
(PID.TID 0000.0001) %MON dynstat_salt_del2            =   1.0146937670567E-06
(PID.TID 0000.0001) %MON advcfl_uvel_max              =   2.2004041741369E-03
(PID.TID 0000.0001) %MON advcfl_vvel_max              =   1.7531754125533E-03
(PID.TID 0000.0001) %MON advcfl_wvel_max              =   4.3637849775852E-03
(PID.TID 0000.0001) %MON advcfl_W_hf_max              =   4.3637849775852E-03
(PID.TID 0000.0001) %MON pe_b_mean                    =  -8.3107958913153E-01
(PID.TID 0000.0001) %MON ke_max                       =   1.7153988663171E-04
(PID.TID 0000.0001) %MON ke_mean                      =   2.9101320622386E-07
(PID.TID 0000.0001) %MON ke_vol                       =   4.2724815184801E+12
(PID.TID 0000.0001) // =======================================================
(PID.TID 0000.0001) // End MONITOR dynamic field statistics
(PID.TID 0000.0001) // =======================================================
(PID.TID 0000.0001) // =======================================================
(PID.TID 0000.0001) // Begin OBCS MONITOR field statistics
(PID.TID 0000.0001) // =======================================================
(PID.TID 0000.0001) %MON obc_N_vVel_max               =   1.4650940286862E-05
(PID.TID 0000.0001) %MON obc_N_vVel_min               =   1.4650940286862E-05
(PID.TID 0000.0001) %MON obc_N_vVel_mean              =   1.4650940286862E-05
(PID.TID 0000.0001) %MON obc_N_vVel_sd                =  -2.5332406259436E-24
(PID.TID 0000.0001) %MON obc_N_vVel_Int               =   9.6696205893287E+02
(PID.TID 0000.0001) // =======================================================
(PID.TID 0000.0001) // End OBCS MONITOR field statistics
(PID.TID 0000.0001) // =======================================================
 cg2d: Sum(rhs),rhsMax =   4.51573891086296E+00  2.99932692073005E+02
(PID.TID 0000.0001)      cg2d_init_res =   6.98937858726378E-06
(PID.TID 0000.0001)      cg2d_iters(min,last) =      -1      82
(PID.TID 0000.0001)      cg2d_last_res =   8.90920044562253E-12
(PID.TID 0000.0001) // =======================================================
(PID.TID 0000.0001) // Begin MONITOR dynamic field statistics
(PID.TID 0000.0001) // =======================================================
(PID.TID 0000.0001) %MON time_tsnumber                =                  1035
(PID.TID 0000.0001) %MON time_secondsf                =   1.0350000000000E+05
(PID.TID 0000.0001) %MON dynstat_eta_max              =   5.7957592040313E+00
(PID.TID 0000.0001) %MON dynstat_eta_min              =  -1.4199926477149E+01
(PID.TID 0000.0001) %MON dynstat_eta_mean             =  -2.5081809782110E+00
(PID.TID 0000.0001) %MON dynstat_eta_sd               =   4.9513647453052E+00
(PID.TID 0000.0001) %MON dynstat_eta_del2             =   2.0715021322632E-01
(PID.TID 0000.0001) %MON dynstat_uvel_max             =   4.9814229181635E-03
(PID.TID 0000.0001) %MON dynstat_uvel_min             =  -2.2064529511749E-02
(PID.TID 0000.0001) %MON dynstat_uvel_mean            =  -1.1838702373004E-07
(PID.TID 0000.0001) %MON dynstat_uvel_sd              =   6.5576617158682E-04
(PID.TID 0000.0001) %MON dynstat_uvel_del2            =   9.6781779182479E-07
(PID.TID 0000.0001) %MON dynstat_vvel_max             =   1.7574054597026E-02
(PID.TID 0000.0001) %MON dynstat_vvel_min             =  -7.2457341527237E-03
(PID.TID 0000.0001) %MON dynstat_vvel_mean            =   1.4990230298639E-05
(PID.TID 0000.0001) %MON dynstat_vvel_sd              =   4.0386705797246E-04
(PID.TID 0000.0001) %MON dynstat_vvel_del2            =   8.0782558163748E-07
(PID.TID 0000.0001) %MON dynstat_wvel_max             =   8.7507944094272E-04
(PID.TID 0000.0001) %MON dynstat_wvel_min             =  -8.5129449019392E-04
(PID.TID 0000.0001) %MON dynstat_wvel_mean            =   7.2741336822506E-09
(PID.TID 0000.0001) %MON dynstat_wvel_sd              =   1.6812458993729E-05
(PID.TID 0000.0001) %MON dynstat_wvel_del2            =   7.3188361656138E-08
(PID.TID 0000.0001) %MON dynstat_theta_max            =   1.2000000000000E+00
(PID.TID 0000.0001) %MON dynstat_theta_min            =  -1.0000000000000E+00
(PID.TID 0000.0001) %MON dynstat_theta_mean           =   5.6875301731948E-01
(PID.TID 0000.0001) %MON dynstat_theta_sd             =   8.6839460331579E-01
(PID.TID 0000.0001) %MON dynstat_theta_del2           =   2.5798323897768E-06
(PID.TID 0000.0001) %MON dynstat_salt_max             =   3.4700000000000E+01
(PID.TID 0000.0001) %MON dynstat_salt_min             =   3.4000000000000E+01
(PID.TID 0000.0001) %MON dynstat_salt_mean            =   3.4499115382371E+01
(PID.TID 0000.0001) %MON dynstat_salt_sd              =   2.7629510260276E-01
(PID.TID 0000.0001) %MON dynstat_salt_del2            =   1.0167048073842E-06
(PID.TID 0000.0001) %MON advcfl_uvel_max              =   2.2064529511749E-03
(PID.TID 0000.0001) %MON advcfl_vvel_max              =   1.7574054597026E-03
(PID.TID 0000.0001) %MON advcfl_wvel_max              =   4.3753972047136E-03
(PID.TID 0000.0001) %MON advcfl_W_hf_max              =   4.3753972047136E-03
(PID.TID 0000.0001) %MON pe_b_mean                    =  -8.3108209417244E-01
(PID.TID 0000.0001) %MON ke_max                       =   1.7252770469685E-04
(PID.TID 0000.0001) %MON ke_mean                      =   2.9241351596991E-07
(PID.TID 0000.0001) %MON ke_vol                       =   4.2724814618592E+12
(PID.TID 0000.0001) // =======================================================
(PID.TID 0000.0001) // End MONITOR dynamic field statistics
(PID.TID 0000.0001) // =======================================================
(PID.TID 0000.0001) // =======================================================
(PID.TID 0000.0001) // Begin OBCS MONITOR field statistics
(PID.TID 0000.0001) // =======================================================
(PID.TID 0000.0001) %MON obc_N_vVel_max               =   1.4700378776345E-05
(PID.TID 0000.0001) %MON obc_N_vVel_min               =   1.4700378776344E-05
(PID.TID 0000.0001) %MON obc_N_vVel_mean              =   1.4700378776345E-05
(PID.TID 0000.0001) %MON obc_N_vVel_sd                =  -9.8486191682095E-24
(PID.TID 0000.0001) %MON obc_N_vVel_Int               =   9.7022499923874E+02
(PID.TID 0000.0001) // =======================================================
(PID.TID 0000.0001) // End OBCS MONITOR field statistics
(PID.TID 0000.0001) // =======================================================
 cg2d: Sum(rhs),rhsMax =   4.51575492476054E+00  2.99932778503768E+02
(PID.TID 0000.0001)      cg2d_init_res =   7.04482189597009E-06
(PID.TID 0000.0001)      cg2d_iters(min,last) =      -1      82
(PID.TID 0000.0001)      cg2d_last_res =   8.92486983505754E-12
(PID.TID 0000.0001) // =======================================================
(PID.TID 0000.0001) // Begin MONITOR dynamic field statistics
(PID.TID 0000.0001) // =======================================================
(PID.TID 0000.0001) %MON time_tsnumber                =                  1036
(PID.TID 0000.0001) %MON time_secondsf                =   1.0360000000000E+05
(PID.TID 0000.0001) %MON dynstat_eta_max              =   5.7957593002351E+00
(PID.TID 0000.0001) %MON dynstat_eta_min              =  -1.4199947366537E+01
(PID.TID 0000.0001) %MON dynstat_eta_mean             =  -2.5081905956028E+00
(PID.TID 0000.0001) %MON dynstat_eta_sd               =   4.9513682467159E+00
(PID.TID 0000.0001) %MON dynstat_eta_del2             =   2.0715024202786E-01
(PID.TID 0000.0001) %MON dynstat_uvel_max             =   4.9939170812650E-03
(PID.TID 0000.0001) %MON dynstat_uvel_min             =  -2.2125129168066E-02
(PID.TID 0000.0001) %MON dynstat_uvel_mean            =  -1.1836955507220E-07
(PID.TID 0000.0001) %MON dynstat_uvel_sd              =   6.5740760901270E-04
(PID.TID 0000.0001) %MON dynstat_uvel_del2            =   9.7005722875265E-07
(PID.TID 0000.0001) %MON dynstat_vvel_max             =   1.7616411466057E-02
(PID.TID 0000.0001) %MON dynstat_vvel_min             =  -7.2583003505349E-03
(PID.TID 0000.0001) %MON dynstat_vvel_mean            =   1.5047001498871E-05
(PID.TID 0000.0001) %MON dynstat_vvel_sd              =   4.0473752659610E-04
(PID.TID 0000.0001) %MON dynstat_vvel_del2            =   8.0991790593234E-07
(PID.TID 0000.0001) %MON dynstat_wvel_max             =   8.7740591333635E-04
(PID.TID 0000.0001) %MON dynstat_wvel_min             =  -8.5348453056147E-04
(PID.TID 0000.0001) %MON dynstat_wvel_mean            =   7.3425818808987E-09
(PID.TID 0000.0001) %MON dynstat_wvel_sd              =   1.6980247562355E-05
(PID.TID 0000.0001) %MON dynstat_wvel_del2            =   7.3877676194932E-08
(PID.TID 0000.0001) %MON dynstat_theta_max            =   1.2000000000000E+00
(PID.TID 0000.0001) %MON dynstat_theta_min            =  -1.0000000000000E+00
(PID.TID 0000.0001) %MON dynstat_theta_mean           =   5.6875220899887E-01
(PID.TID 0000.0001) %MON dynstat_theta_sd             =   8.6839416667087E-01
(PID.TID 0000.0001) %MON dynstat_theta_del2           =   2.5846310099310E-06
(PID.TID 0000.0001) %MON dynstat_salt_max             =   3.4700000000000E+01
(PID.TID 0000.0001) %MON dynstat_salt_min             =   3.4000000000000E+01
(PID.TID 0000.0001) %MON dynstat_salt_mean            =   3.4499115058996E+01
(PID.TID 0000.0001) %MON dynstat_salt_sd              =   2.7629493466164E-01
(PID.TID 0000.0001) %MON dynstat_salt_del2            =   1.0186970224920E-06
(PID.TID 0000.0001) %MON advcfl_uvel_max              =   2.2125129168066E-03
(PID.TID 0000.0001) %MON advcfl_vvel_max              =   1.7616411466057E-03
(PID.TID 0000.0001) %MON advcfl_wvel_max              =   4.3870295666817E-03
(PID.TID 0000.0001) %MON advcfl_W_hf_max              =   4.3870295666817E-03
(PID.TID 0000.0001) %MON pe_b_mean                    =  -8.3108460926797E-01
(PID.TID 0000.0001) %MON ke_max                       =   1.7352043877997E-04
(PID.TID 0000.0001) %MON ke_mean                      =   2.9382265881905E-07
(PID.TID 0000.0001) %MON ke_vol                       =   4.2724814049894E+12
(PID.TID 0000.0001) // =======================================================
(PID.TID 0000.0001) // End MONITOR dynamic field statistics
(PID.TID 0000.0001) // =======================================================
(PID.TID 0000.0001) // =======================================================
(PID.TID 0000.0001) // Begin OBCS MONITOR field statistics
(PID.TID 0000.0001) // =======================================================
(PID.TID 0000.0001) %MON obc_N_vVel_max               =   1.4751144621096E-05
(PID.TID 0000.0001) %MON obc_N_vVel_min               =   1.4751144621096E-05
(PID.TID 0000.0001) %MON obc_N_vVel_mean              =   1.4751144621096E-05
(PID.TID 0000.0001) %MON obc_N_vVel_sd                =   3.7326697473377E-12
(PID.TID 0000.0001) %MON obc_N_vVel_Int               =   9.7357554499231E+02
(PID.TID 0000.0001) // =======================================================
(PID.TID 0000.0001) // End OBCS MONITOR field statistics
(PID.TID 0000.0001) // =======================================================
 cg2d: Sum(rhs),rhsMax =   4.51577098963768E+00  2.99932866843255E+02
(PID.TID 0000.0001)      cg2d_init_res =   7.09956698689385E-06
(PID.TID 0000.0001)      cg2d_iters(min,last) =      -1      82
(PID.TID 0000.0001)      cg2d_last_res =   8.93888879168793E-12
(PID.TID 0000.0001) // =======================================================
(PID.TID 0000.0001) // Begin MONITOR dynamic field statistics
(PID.TID 0000.0001) // =======================================================
(PID.TID 0000.0001) %MON time_tsnumber                =                  1037
(PID.TID 0000.0001) %MON time_secondsf                =   1.0370000000000E+05
(PID.TID 0000.0001) %MON dynstat_eta_max              =   5.7957593445017E+00
(PID.TID 0000.0001) %MON dynstat_eta_min              =  -1.4199968347308E+01
(PID.TID 0000.0001) %MON dynstat_eta_mean             =  -2.5082002572771E+00
(PID.TID 0000.0001) %MON dynstat_eta_sd               =   4.9513717638394E+00
(PID.TID 0000.0001) %MON dynstat_eta_del2             =   2.0715027090674E-01
(PID.TID 0000.0001) %MON dynstat_uvel_max             =   5.0064358379736E-03
(PID.TID 0000.0001) %MON dynstat_uvel_min             =  -2.2185840716043E-02
(PID.TID 0000.0001) %MON dynstat_uvel_mean            =  -1.1832460166779E-07
(PID.TID 0000.0001) %MON dynstat_uvel_sd              =   6.5905229943329E-04
(PID.TID 0000.0001) %MON dynstat_uvel_del2            =   9.7230279761946E-07
(PID.TID 0000.0001) %MON dynstat_vvel_max             =   1.7658824486197E-02
(PID.TID 0000.0001) %MON dynstat_vvel_min             =  -7.2708796412488E-03
(PID.TID 0000.0001) %MON dynstat_vvel_mean            =   1.5104352200373E-05
(PID.TID 0000.0001) %MON dynstat_vvel_sd              =   4.0561425023593E-04
(PID.TID 0000.0001) %MON dynstat_vvel_del2            =   8.1205464498702E-07
(PID.TID 0000.0001) %MON dynstat_wvel_max             =   8.7973640984591E-04
(PID.TID 0000.0001) %MON dynstat_wvel_min             =  -8.5567842850163E-04
(PID.TID 0000.0001) %MON dynstat_wvel_mean            =   7.4074456889624E-09
(PID.TID 0000.0001) %MON dynstat_wvel_sd              =   1.7165601019515E-05
(PID.TID 0000.0001) %MON dynstat_wvel_del2            =   7.4692477036647E-08
(PID.TID 0000.0001) %MON dynstat_theta_max            =   1.2000000000000E+00
(PID.TID 0000.0001) %MON dynstat_theta_min            =  -1.0000000000000E+00
(PID.TID 0000.0001) %MON dynstat_theta_mean           =   5.6875139913268E-01
(PID.TID 0000.0001) %MON dynstat_theta_sd             =   8.6839372917640E-01
(PID.TID 0000.0001) %MON dynstat_theta_del2           =   2.5893720785514E-06
(PID.TID 0000.0001) %MON dynstat_salt_max             =   3.4700000000000E+01
(PID.TID 0000.0001) %MON dynstat_salt_min             =   3.4000000000000E+01
(PID.TID 0000.0001) %MON dynstat_salt_mean            =   3.4499114735001E+01
(PID.TID 0000.0001) %MON dynstat_salt_sd              =   2.7629476639229E-01
(PID.TID 0000.0001) %MON dynstat_salt_del2            =   1.0206748271208E-06
(PID.TID 0000.0001) %MON advcfl_uvel_max              =   2.2185840716043E-03
(PID.TID 0000.0001) %MON advcfl_vvel_max              =   1.7658824486197E-03
(PID.TID 0000.0001) %MON advcfl_wvel_max              =   4.3986820492295E-03
(PID.TID 0000.0001) %MON advcfl_W_hf_max              =   4.3986820492295E-03
(PID.TID 0000.0001) %MON pe_b_mean                    =  -8.3108713451984E-01
(PID.TID 0000.0001) %MON ke_max                       =   1.7451810819347E-04
(PID.TID 0000.0001) %MON ke_mean                      =   2.9523985040735E-07
(PID.TID 0000.0001) %MON ke_vol                       =   4.2724813478621E+12
(PID.TID 0000.0001) // =======================================================
(PID.TID 0000.0001) // End MONITOR dynamic field statistics
(PID.TID 0000.0001) // =======================================================
(PID.TID 0000.0001) // =======================================================
(PID.TID 0000.0001) // Begin OBCS MONITOR field statistics
(PID.TID 0000.0001) // =======================================================
(PID.TID 0000.0001) %MON obc_N_vVel_max               =   1.4802753617754E-05
(PID.TID 0000.0001) %MON obc_N_vVel_min               =   1.4802753617754E-05
(PID.TID 0000.0001) %MON obc_N_vVel_mean              =   1.4802753617754E-05
(PID.TID 0000.0001) %MON obc_N_vVel_sd                =  -6.1521558058631E-24
(PID.TID 0000.0001) %MON obc_N_vVel_Int               =   9.7698173877179E+02
(PID.TID 0000.0001) // =======================================================
(PID.TID 0000.0001) // End OBCS MONITOR field statistics
(PID.TID 0000.0001) // =======================================================
 cg2d: Sum(rhs),rhsMax =   4.51578710758996E+00  2.99932956996986E+02
(PID.TID 0000.0001)      cg2d_init_res =   7.15311005045213E-06
(PID.TID 0000.0001)      cg2d_iters(min,last) =      -1      82
(PID.TID 0000.0001)      cg2d_last_res =   8.95119802892067E-12
(PID.TID 0000.0001) // =======================================================
(PID.TID 0000.0001) // Begin MONITOR dynamic field statistics
(PID.TID 0000.0001) // =======================================================
(PID.TID 0000.0001) %MON time_tsnumber                =                  1038
(PID.TID 0000.0001) %MON time_secondsf                =   1.0380000000000E+05
(PID.TID 0000.0001) %MON dynstat_eta_max              =   5.7957593371987E+00
(PID.TID 0000.0001) %MON dynstat_eta_min              =  -1.4199989419479E+01
(PID.TID 0000.0001) %MON dynstat_eta_mean             =  -2.5082099636080E+00
(PID.TID 0000.0001) %MON dynstat_eta_sd               =   4.9513752963438E+00
(PID.TID 0000.0001) %MON dynstat_eta_del2             =   2.0715029986254E-01
(PID.TID 0000.0001) %MON dynstat_uvel_max             =   5.0189792591766E-03
(PID.TID 0000.0001) %MON dynstat_uvel_min             =  -2.2246664163041E-02
(PID.TID 0000.0001) %MON dynstat_uvel_mean            =  -1.1825209376923E-07
(PID.TID 0000.0001) %MON dynstat_uvel_sd              =   6.6070024682642E-04
(PID.TID 0000.0001) %MON dynstat_uvel_del2            =   9.7455453289617E-07
(PID.TID 0000.0001) %MON dynstat_vvel_max             =   1.7701293407759E-02
(PID.TID 0000.0001) %MON dynstat_vvel_min             =  -7.2834720748984E-03
(PID.TID 0000.0001) %MON dynstat_vvel_mean            =   1.5161727950800E-05
(PID.TID 0000.0001) %MON dynstat_vvel_sd              =   4.0649503835181E-04
(PID.TID 0000.0001) %MON dynstat_vvel_del2            =   8.1421980373013E-07
(PID.TID 0000.0001) %MON dynstat_wvel_max             =   8.8207092756988E-04
(PID.TID 0000.0001) %MON dynstat_wvel_min             =  -8.5787617479636E-04
(PID.TID 0000.0001) %MON dynstat_wvel_mean            =   7.4680661698959E-09
(PID.TID 0000.0001) %MON dynstat_wvel_sd              =   1.7361494147736E-05
(PID.TID 0000.0001) %MON dynstat_wvel_del2            =   7.5604349647056E-08
(PID.TID 0000.0001) %MON dynstat_theta_max            =   1.2000000000000E+00
(PID.TID 0000.0001) %MON dynstat_theta_min            =  -1.0000000000000E+00
(PID.TID 0000.0001) %MON dynstat_theta_mean           =   5.6875058772136E-01
(PID.TID 0000.0001) %MON dynstat_theta_sd             =   8.6839329082751E-01
(PID.TID 0000.0001) %MON dynstat_theta_del2           =   2.5940749843180E-06
(PID.TID 0000.0001) %MON dynstat_salt_max             =   3.4700000000000E+01
(PID.TID 0000.0001) %MON dynstat_salt_min             =   3.4000000000000E+01
(PID.TID 0000.0001) %MON dynstat_salt_mean            =   3.4499114410385E+01
(PID.TID 0000.0001) %MON dynstat_salt_sd              =   2.7629459779313E-01
(PID.TID 0000.0001) %MON dynstat_salt_del2            =   1.0226432816039E-06
(PID.TID 0000.0001) %MON advcfl_uvel_max              =   2.2246664163041E-03
(PID.TID 0000.0001) %MON advcfl_vvel_max              =   1.7701293407759E-03
(PID.TID 0000.0001) %MON advcfl_wvel_max              =   4.4103546378494E-03
(PID.TID 0000.0001) %MON advcfl_W_hf_max              =   4.4103546378494E-03
(PID.TID 0000.0001) %MON pe_b_mean                    =  -8.3108966988732E-01
(PID.TID 0000.0001) %MON ke_max                       =   1.7552073233775E-04
(PID.TID 0000.0001) %MON ke_mean                      =   2.9666422687579E-07
(PID.TID 0000.0001) %MON ke_vol                       =   4.2724812904718E+12
(PID.TID 0000.0001) // =======================================================
(PID.TID 0000.0001) // End MONITOR dynamic field statistics
(PID.TID 0000.0001) // =======================================================
(PID.TID 0000.0001) // =======================================================
(PID.TID 0000.0001) // Begin OBCS MONITOR field statistics
(PID.TID 0000.0001) // =======================================================
(PID.TID 0000.0001) %MON obc_N_vVel_max               =   1.4854709623470E-05
(PID.TID 0000.0001) %MON obc_N_vVel_min               =   1.4854709623470E-05
(PID.TID 0000.0001) %MON obc_N_vVel_mean              =   1.4854709623470E-05
(PID.TID 0000.0001) %MON obc_N_vVel_sd                =   2.3847152264583E-12
(PID.TID 0000.0001) %MON obc_N_vVel_Int               =   9.8041083514899E+02
(PID.TID 0000.0001) // =======================================================
(PID.TID 0000.0001) // End OBCS MONITOR field statistics
(PID.TID 0000.0001) // =======================================================
 cg2d: Sum(rhs),rhsMax =   4.51580327994546E+00  2.99933048854323E+02
(PID.TID 0000.0001)      cg2d_init_res =   7.20491496603301E-06
(PID.TID 0000.0001)      cg2d_iters(min,last) =      -1      82
(PID.TID 0000.0001)      cg2d_last_res =   8.96175425869834E-12
(PID.TID 0000.0001) // =======================================================
(PID.TID 0000.0001) // Begin MONITOR dynamic field statistics
(PID.TID 0000.0001) // =======================================================
(PID.TID 0000.0001) %MON time_tsnumber                =                  1039
(PID.TID 0000.0001) %MON time_secondsf                =   1.0390000000000E+05
(PID.TID 0000.0001) %MON dynstat_eta_max              =   5.7957592797116E+00
(PID.TID 0000.0001) %MON dynstat_eta_min              =  -1.4200010582057E+01
(PID.TID 0000.0001) %MON dynstat_eta_mean             =  -2.5082197144081E+00
(PID.TID 0000.0001) %MON dynstat_eta_sd               =   4.9513788437066E+00
(PID.TID 0000.0001) %MON dynstat_eta_del2             =   2.0715032889440E-01
(PID.TID 0000.0001) %MON dynstat_uvel_max             =   5.0315474148839E-03
(PID.TID 0000.0001) %MON dynstat_uvel_min             =  -2.2307599518290E-02
(PID.TID 0000.0001) %MON dynstat_uvel_mean            =  -1.1815224013007E-07
(PID.TID 0000.0001) %MON dynstat_uvel_sd              =   6.6235145499780E-04
(PID.TID 0000.0001) %MON dynstat_uvel_del2            =   9.7681247116127E-07
(PID.TID 0000.0001) %MON dynstat_vvel_max             =   1.7743817979039E-02
(PID.TID 0000.0001) %MON dynstat_vvel_min             =  -7.2960777013940E-03
(PID.TID 0000.0001) %MON dynstat_vvel_mean            =   1.5218569759856E-05
(PID.TID 0000.0001) %MON dynstat_vvel_sd              =   4.0737760391506E-04
(PID.TID 0000.0001) %MON dynstat_vvel_del2            =   8.1639609185421E-07
(PID.TID 0000.0001) %MON dynstat_wvel_max             =   8.8440946354413E-04
(PID.TID 0000.0001) %MON dynstat_wvel_min             =  -8.6007776005930E-04
(PID.TID 0000.0001) %MON dynstat_wvel_mean            =   7.5238211045760E-09
(PID.TID 0000.0001) %MON dynstat_wvel_sd              =   1.7560571038638E-05
(PID.TID 0000.0001) %MON dynstat_wvel_del2            =   7.6579944209320E-08
(PID.TID 0000.0001) %MON dynstat_theta_max            =   1.2000000000000E+00
(PID.TID 0000.0001) %MON dynstat_theta_min            =  -1.0000000000000E+00
(PID.TID 0000.0001) %MON dynstat_theta_mean           =   5.6874977476508E-01
(PID.TID 0000.0001) %MON dynstat_theta_sd             =   8.6839285161741E-01
(PID.TID 0000.0001) %MON dynstat_theta_del2           =   2.5987609546926E-06
(PID.TID 0000.0001) %MON dynstat_salt_max             =   3.4700000000000E+01
(PID.TID 0000.0001) %MON dynstat_salt_min             =   3.4000000000000E+01
(PID.TID 0000.0001) %MON dynstat_salt_mean            =   3.4499114085149E+01
(PID.TID 0000.0001) %MON dynstat_salt_sd              =   2.7629442886190E-01
(PID.TID 0000.0001) %MON dynstat_salt_del2            =   1.0246078969783E-06
(PID.TID 0000.0001) %MON advcfl_uvel_max              =   2.2307599518290E-03
(PID.TID 0000.0001) %MON advcfl_vvel_max              =   1.7743817979039E-03
(PID.TID 0000.0001) %MON advcfl_wvel_max              =   4.4220473177206E-03
(PID.TID 0000.0001) %MON advcfl_W_hf_max              =   4.4220473177206E-03
(PID.TID 0000.0001) %MON pe_b_mean                    =  -8.3109221518577E-01
(PID.TID 0000.0001) %MON ke_max                       =   1.7652833070504E-04
(PID.TID 0000.0001) %MON ke_mean                      =   2.9809487716738E-07
(PID.TID 0000.0001) %MON ke_vol                       =   4.2724812328162E+12
(PID.TID 0000.0001) // =======================================================
(PID.TID 0000.0001) // End MONITOR dynamic field statistics
(PID.TID 0000.0001) // =======================================================
(PID.TID 0000.0001) // =======================================================
(PID.TID 0000.0001) // Begin OBCS MONITOR field statistics
(PID.TID 0000.0001) // =======================================================
(PID.TID 0000.0001) %MON obc_N_vVel_max               =   1.4906509255033E-05
(PID.TID 0000.0001) %MON obc_N_vVel_min               =   1.4906509255033E-05
(PID.TID 0000.0001) %MON obc_N_vVel_mean              =   1.4906509255033E-05
(PID.TID 0000.0001) %MON obc_N_vVel_sd                =   8.5075439228011E-13
(PID.TID 0000.0001) %MON obc_N_vVel_Int               =   9.8382961083218E+02
(PID.TID 0000.0001) // =======================================================
(PID.TID 0000.0001) // End OBCS MONITOR field statistics
(PID.TID 0000.0001) // =======================================================
 cg2d: Sum(rhs),rhsMax =   4.51581950725146E+00  2.99933142289282E+02
(PID.TID 0000.0001)      cg2d_init_res =   7.25443914339181E-06
(PID.TID 0000.0001)      cg2d_iters(min,last) =      -1      82
(PID.TID 0000.0001)      cg2d_last_res =   8.97055857374728E-12
(PID.TID 0000.0001) // =======================================================
(PID.TID 0000.0001) // Begin MONITOR dynamic field statistics
(PID.TID 0000.0001) // =======================================================
(PID.TID 0000.0001) %MON time_tsnumber                =                  1040
(PID.TID 0000.0001) %MON time_secondsf                =   1.0400000000000E+05
(PID.TID 0000.0001) %MON dynstat_eta_max              =   5.7957591744296E+00
(PID.TID 0000.0001) %MON dynstat_eta_min              =  -1.4200031833035E+01
(PID.TID 0000.0001) %MON dynstat_eta_mean             =  -2.5082295089281E+00
(PID.TID 0000.0001) %MON dynstat_eta_sd               =   4.9513824052221E+00
(PID.TID 0000.0001) %MON dynstat_eta_del2             =   2.0715035800127E-01
(PID.TID 0000.0001) %MON dynstat_uvel_max             =   5.0441403737906E-03
(PID.TID 0000.0001) %MON dynstat_uvel_min             =  -2.2368646793416E-02
(PID.TID 0000.0001) %MON dynstat_uvel_mean            =  -1.1802552746136E-07
(PID.TID 0000.0001) %MON dynstat_uvel_sd              =   6.6400592740272E-04
(PID.TID 0000.0001) %MON dynstat_uvel_del2            =   9.7907664941920E-07
(PID.TID 0000.0001) %MON dynstat_vvel_max             =   1.7786397947203E-02
(PID.TID 0000.0001) %MON dynstat_vvel_min             =  -7.3086965700684E-03
(PID.TID 0000.0001) %MON dynstat_vvel_mean            =   1.5274319720135E-05
(PID.TID 0000.0001) %MON dynstat_vvel_sd              =   4.0825965040117E-04
(PID.TID 0000.0001) %MON dynstat_vvel_del2            =   8.1856551538236E-07
(PID.TID 0000.0001) %MON dynstat_wvel_max             =   8.8675201475280E-04
(PID.TID 0000.0001) %MON dynstat_wvel_min             =  -8.6228317490823E-04
(PID.TID 0000.0001) %MON dynstat_wvel_mean            =   7.5741334299352E-09
(PID.TID 0000.0001) %MON dynstat_wvel_sd              =   1.7755461622828E-05
(PID.TID 0000.0001) %MON dynstat_wvel_del2            =   7.7582622392031E-08
(PID.TID 0000.0001) %MON dynstat_theta_max            =   1.2000000000000E+00
(PID.TID 0000.0001) %MON dynstat_theta_min            =  -1.0000000000000E+00
(PID.TID 0000.0001) %MON dynstat_theta_mean           =   5.6874896026392E-01
(PID.TID 0000.0001) %MON dynstat_theta_sd             =   8.6839241154218E-01
(PID.TID 0000.0001) %MON dynstat_theta_del2           =   2.6034522248904E-06
(PID.TID 0000.0001) %MON dynstat_salt_max             =   3.4700000000000E+01
(PID.TID 0000.0001) %MON dynstat_salt_min             =   3.4000000000000E+01
(PID.TID 0000.0001) %MON dynstat_salt_mean            =   3.4499113759292E+01
(PID.TID 0000.0001) %MON dynstat_salt_sd              =   2.7629425959720E-01
(PID.TID 0000.0001) %MON dynstat_salt_del2            =   1.0265744778835E-06
(PID.TID 0000.0001) %MON advcfl_uvel_max              =   2.2368646793416E-03
(PID.TID 0000.0001) %MON advcfl_vvel_max              =   1.7786397947203E-03
(PID.TID 0000.0001) %MON advcfl_wvel_max              =   4.4337600737640E-03
(PID.TID 0000.0001) %MON advcfl_W_hf_max              =   4.4337600737640E-03
(PID.TID 0000.0001) %MON pe_b_mean                    =  -8.3109477008793E-01
(PID.TID 0000.0001) %MON ke_max                       =   1.7754092288652E-04
(PID.TID 0000.0001) %MON ke_mean                      =   2.9953087801711E-07
(PID.TID 0000.0001) %MON ke_vol                       =   4.2724811748964E+12
(PID.TID 0000.0001) // =======================================================
(PID.TID 0000.0001) // End MONITOR dynamic field statistics
(PID.TID 0000.0001) // =======================================================
(PID.TID 0000.0001) // =======================================================
(PID.TID 0000.0001) // Begin OBCS MONITOR field statistics
(PID.TID 0000.0001) // =======================================================
(PID.TID 0000.0001) %MON obc_N_vVel_max               =   1.4957646835539E-05
(PID.TID 0000.0001) %MON obc_N_vVel_min               =   1.4957646835538E-05
(PID.TID 0000.0001) %MON obc_N_vVel_mean              =   1.4957646835538E-05
(PID.TID 0000.0001) %MON obc_N_vVel_sd                =   2.0714727677715E-12
(PID.TID 0000.0001) %MON obc_N_vVel_Int               =   9.8720469114553E+02
(PID.TID 0000.0001) // =======================================================
(PID.TID 0000.0001) // End OBCS MONITOR field statistics
(PID.TID 0000.0001) // =======================================================
 cg2d: Sum(rhs),rhsMax =   4.51583578926331E+00  2.99933237161670E+02
(PID.TID 0000.0001)      cg2d_init_res =   7.30112222367395E-06
(PID.TID 0000.0001)      cg2d_iters(min,last) =      -1      82
(PID.TID 0000.0001)      cg2d_last_res =   8.97758789262420E-12
(PID.TID 0000.0001) // =======================================================
(PID.TID 0000.0001) // Begin MONITOR dynamic field statistics
(PID.TID 0000.0001) // =======================================================
(PID.TID 0000.0001) %MON time_tsnumber                =                  1041
(PID.TID 0000.0001) %MON time_secondsf                =   1.0410000000000E+05
(PID.TID 0000.0001) %MON dynstat_eta_max              =   5.7957590247230E+00
(PID.TID 0000.0001) %MON dynstat_eta_min              =  -1.4200053169433E+01
(PID.TID 0000.0001) %MON dynstat_eta_mean             =  -2.5082393458598E+00
(PID.TID 0000.0001) %MON dynstat_eta_sd               =   4.9513859800051E+00
(PID.TID 0000.0001) %MON dynstat_eta_del2             =   2.0715038718182E-01
(PID.TID 0000.0001) %MON dynstat_uvel_max             =   5.0567582027767E-03
(PID.TID 0000.0001) %MON dynstat_uvel_min             =  -2.2429806002794E-02
(PID.TID 0000.0001) %MON dynstat_uvel_mean            =  -1.1787272401260E-07
(PID.TID 0000.0001) %MON dynstat_uvel_sd              =   6.6566366696930E-04
(PID.TID 0000.0001) %MON dynstat_uvel_del2            =   9.8134710383831E-07
(PID.TID 0000.0001) %MON dynstat_vvel_max             =   1.7829033059549E-02
(PID.TID 0000.0001) %MON dynstat_vvel_min             =  -7.3213287290601E-03
(PID.TID 0000.0001) %MON dynstat_vvel_mean            =   1.5328426724202E-05
(PID.TID 0000.0001) %MON dynstat_vvel_sd              =   4.0913896072744E-04
(PID.TID 0000.0001) %MON dynstat_vvel_del2            =   8.2071004508025E-07
(PID.TID 0000.0001) %MON dynstat_wvel_max             =   8.8909857809792E-04
(PID.TID 0000.0001) %MON dynstat_wvel_min             =  -8.6449240993349E-04
(PID.TID 0000.0001) %MON dynstat_wvel_mean            =   7.6184761416242E-09
(PID.TID 0000.0001) %MON dynstat_wvel_sd              =   1.7939081373376E-05
(PID.TID 0000.0001) %MON dynstat_wvel_del2            =   7.8574282690523E-08
(PID.TID 0000.0001) %MON dynstat_theta_max            =   1.2000000000000E+00
(PID.TID 0000.0001) %MON dynstat_theta_min            =  -1.0000000000000E+00
(PID.TID 0000.0001) %MON dynstat_theta_mean           =   5.6874814421777E-01
(PID.TID 0000.0001) %MON dynstat_theta_sd             =   8.6839197060174E-01
(PID.TID 0000.0001) %MON dynstat_theta_del2           =   2.6081712486765E-06
(PID.TID 0000.0001) %MON dynstat_salt_max             =   3.4700000000000E+01
(PID.TID 0000.0001) %MON dynstat_salt_min             =   3.4000000000000E+01
(PID.TID 0000.0001) %MON dynstat_salt_mean            =   3.4499113432815E+01
(PID.TID 0000.0001) %MON dynstat_salt_sd              =   2.7629408999903E-01
(PID.TID 0000.0001) %MON dynstat_salt_del2            =   1.0285488907288E-06
(PID.TID 0000.0001) %MON advcfl_uvel_max              =   2.2429806002794E-03
(PID.TID 0000.0001) %MON advcfl_vvel_max              =   1.7829033059549E-03
(PID.TID 0000.0001) %MON advcfl_wvel_max              =   4.4454928904896E-03
(PID.TID 0000.0001) %MON advcfl_W_hf_max              =   4.4454928904896E-03
(PID.TID 0000.0001) %MON pe_b_mean                    =  -8.3109733412602E-01
(PID.TID 0000.0001) %MON ke_max                       =   1.7855852857800E-04
(PID.TID 0000.0001) %MON ke_mean                      =   3.0097133025482E-07
(PID.TID 0000.0001) %MON ke_vol                       =   4.2724811167170E+12
(PID.TID 0000.0001) // =======================================================
(PID.TID 0000.0001) // End MONITOR dynamic field statistics
(PID.TID 0000.0001) // =======================================================
(PID.TID 0000.0001) // =======================================================
(PID.TID 0000.0001) // Begin OBCS MONITOR field statistics
(PID.TID 0000.0001) // =======================================================
(PID.TID 0000.0001) %MON obc_N_vVel_max               =   1.5007619655726E-05
(PID.TID 0000.0001) %MON obc_N_vVel_min               =   1.5007619655725E-05
(PID.TID 0000.0001) %MON obc_N_vVel_mean              =   1.5007619655725E-05
(PID.TID 0000.0001) %MON obc_N_vVel_sd                =   3.3648231208073E-12
(PID.TID 0000.0001) %MON obc_N_vVel_Int               =   9.9050289727787E+02
(PID.TID 0000.0001) // =======================================================
(PID.TID 0000.0001) // End OBCS MONITOR field statistics
(PID.TID 0000.0001) // =======================================================
 cg2d: Sum(rhs),rhsMax =   4.51585212495172E+00  2.99933333318016E+02
(PID.TID 0000.0001)      cg2d_init_res =   7.34442938679762E-06
(PID.TID 0000.0001)      cg2d_iters(min,last) =      -1      82
(PID.TID 0000.0001)      cg2d_last_res =   8.98293472637164E-12
(PID.TID 0000.0001) // =======================================================
(PID.TID 0000.0001) // Begin MONITOR dynamic field statistics
(PID.TID 0000.0001) // =======================================================
(PID.TID 0000.0001) %MON time_tsnumber                =                  1042
(PID.TID 0000.0001) %MON time_secondsf                =   1.0420000000000E+05
(PID.TID 0000.0001) %MON dynstat_eta_max              =   5.7957588349340E+00
(PID.TID 0000.0001) %MON dynstat_eta_min              =  -1.4200074587277E+01
(PID.TID 0000.0001) %MON dynstat_eta_mean             =  -2.5082492233482E+00
(PID.TID 0000.0001) %MON dynstat_eta_sd               =   4.9513895670084E+00
(PID.TID 0000.0001) %MON dynstat_eta_del2             =   2.0715041643499E-01
(PID.TID 0000.0001) %MON dynstat_uvel_max             =   5.0694009667431E-03
(PID.TID 0000.0001) %MON dynstat_uvel_min             =  -2.2491077163810E-02
(PID.TID 0000.0001) %MON dynstat_uvel_mean            =  -1.1769485967819E-07
(PID.TID 0000.0001) %MON dynstat_uvel_sd              =   6.6732467594015E-04
(PID.TID 0000.0001) %MON dynstat_uvel_del2            =   9.8362386844180E-07
(PID.TID 0000.0001) %MON dynstat_vvel_max             =   1.7871723064491E-02
(PID.TID 0000.0001) %MON dynstat_vvel_min             =  -7.3339742246681E-03
(PID.TID 0000.0001) %MON dynstat_vvel_mean            =   1.5380352175741E-05
(PID.TID 0000.0001) %MON dynstat_vvel_sd              =   4.1001348441587E-04
(PID.TID 0000.0001) %MON dynstat_vvel_del2            =   8.2281232959346E-07
(PID.TID 0000.0001) %MON dynstat_wvel_max             =   8.9144915041959E-04
(PID.TID 0000.0001) %MON dynstat_wvel_min             =  -8.6670545584667E-04
(PID.TID 0000.0001) %MON dynstat_wvel_mean            =   7.6563792294202E-09
(PID.TID 0000.0001) %MON dynstat_wvel_sd              =   1.8104903327604E-05
(PID.TID 0000.0001) %MON dynstat_wvel_del2            =   7.9517214386179E-08
(PID.TID 0000.0001) %MON dynstat_theta_max            =   1.2000000000000E+00
(PID.TID 0000.0001) %MON dynstat_theta_min            =  -1.0000000000000E+00
(PID.TID 0000.0001) %MON dynstat_theta_mean           =   5.6874732662669E-01
(PID.TID 0000.0001) %MON dynstat_theta_sd             =   8.6839152879271E-01
(PID.TID 0000.0001) %MON dynstat_theta_del2           =   2.6129398188408E-06
(PID.TID 0000.0001) %MON dynstat_salt_max             =   3.4700000000000E+01
(PID.TID 0000.0001) %MON dynstat_salt_min             =   3.4000000000000E+01
(PID.TID 0000.0001) %MON dynstat_salt_mean            =   3.4499113105717E+01
(PID.TID 0000.0001) %MON dynstat_salt_sd              =   2.7629392006628E-01
(PID.TID 0000.0001) %MON dynstat_salt_del2            =   1.0305368234311E-06
(PID.TID 0000.0001) %MON advcfl_uvel_max              =   2.2491077163810E-03
(PID.TID 0000.0001) %MON advcfl_vvel_max              =   1.7871723064491E-03
(PID.TID 0000.0001) %MON advcfl_wvel_max              =   4.4572457520980E-03
(PID.TID 0000.0001) %MON advcfl_W_hf_max              =   4.4572457520980E-03
(PID.TID 0000.0001) %MON pe_b_mean                    =  -8.3109990669659E-01
(PID.TID 0000.0001) %MON ke_max                       =   1.7958116758320E-04
(PID.TID 0000.0001) %MON ke_mean                      =   3.0241539491431E-07
(PID.TID 0000.0001) %MON ke_vol                       =   4.2724810582856E+12
(PID.TID 0000.0001) // =======================================================
(PID.TID 0000.0001) // End MONITOR dynamic field statistics
(PID.TID 0000.0001) // =======================================================
(PID.TID 0000.0001) // =======================================================
(PID.TID 0000.0001) // Begin OBCS MONITOR field statistics
(PID.TID 0000.0001) // =======================================================
(PID.TID 0000.0001) %MON obc_N_vVel_max               =   1.5055933073291E-05
(PID.TID 0000.0001) %MON obc_N_vVel_min               =   1.5055933073291E-05
(PID.TID 0000.0001) %MON obc_N_vVel_mean              =   1.5055933073291E-05
(PID.TID 0000.0001) %MON obc_N_vVel_sd                =   2.4383110246080E-12
(PID.TID 0000.0001) %MON obc_N_vVel_Int               =   9.9369158283718E+02
(PID.TID 0000.0001) // =======================================================
(PID.TID 0000.0001) // End OBCS MONITOR field statistics
(PID.TID 0000.0001) // =======================================================
 cg2d: Sum(rhs),rhsMax =   4.51586851250146E+00  2.99933430593154E+02
(PID.TID 0000.0001)      cg2d_init_res =   7.38382890959413E-06
(PID.TID 0000.0001)      cg2d_iters(min,last) =      -1      82
(PID.TID 0000.0001)      cg2d_last_res =   8.98666586774180E-12
(PID.TID 0000.0001) // =======================================================
(PID.TID 0000.0001) // Begin MONITOR dynamic field statistics
(PID.TID 0000.0001) // =======================================================
(PID.TID 0000.0001) %MON time_tsnumber                =                  1043
(PID.TID 0000.0001) %MON time_secondsf                =   1.0430000000000E+05
(PID.TID 0000.0001) %MON dynstat_eta_max              =   5.7957586103326E+00
(PID.TID 0000.0001) %MON dynstat_eta_min              =  -1.4200096081667E+01
(PID.TID 0000.0001) %MON dynstat_eta_mean             =  -2.5082591390040E+00
(PID.TID 0000.0001) %MON dynstat_eta_sd               =   4.9513931650219E+00
(PID.TID 0000.0001) %MON dynstat_eta_del2             =   2.0715044575937E-01
(PID.TID 0000.0001) %MON dynstat_uvel_max             =   5.0820687281323E-03
(PID.TID 0000.0001) %MON dynstat_uvel_min             =  -2.2552460297361E-02
(PID.TID 0000.0001) %MON dynstat_uvel_mean            =  -1.1749321703569E-07
(PID.TID 0000.0001) %MON dynstat_uvel_sd              =   6.6898895575549E-04
(PID.TID 0000.0001) %MON dynstat_uvel_del2            =   9.8590697334756E-07
(PID.TID 0000.0001) %MON dynstat_vvel_max             =   1.7914467712710E-02
(PID.TID 0000.0001) %MON dynstat_vvel_min             =  -7.3466331007577E-03
(PID.TID 0000.0001) %MON dynstat_vvel_mean            =   1.5429575661116E-05
(PID.TID 0000.0001) %MON dynstat_vvel_sd              =   4.1088141909436E-04
(PID.TID 0000.0001) %MON dynstat_vvel_del2            =   8.2485641508281E-07
(PID.TID 0000.0001) %MON dynstat_wvel_max             =   8.9380372848808E-04
(PID.TID 0000.0001) %MON dynstat_wvel_min             =  -8.6892230341035E-04
(PID.TID 0000.0001) %MON dynstat_wvel_mean            =   7.6874345515474E-09
(PID.TID 0000.0001) %MON dynstat_wvel_sd              =   1.8247195721406E-05
(PID.TID 0000.0001) %MON dynstat_wvel_del2            =   8.0375855274985E-08
(PID.TID 0000.0001) %MON dynstat_theta_max            =   1.2000000000000E+00
(PID.TID 0000.0001) %MON dynstat_theta_min            =  -1.0000000000000E+00
(PID.TID 0000.0001) %MON dynstat_theta_mean           =   5.6874650749054E-01
(PID.TID 0000.0001) %MON dynstat_theta_sd             =   8.6839108611162E-01
(PID.TID 0000.0001) %MON dynstat_theta_del2           =   2.6177781896852E-06
(PID.TID 0000.0001) %MON dynstat_salt_max             =   3.4700000000000E+01
(PID.TID 0000.0001) %MON dynstat_salt_min             =   3.4000000000000E+01
(PID.TID 0000.0001) %MON dynstat_salt_mean            =   3.4499112777998E+01
(PID.TID 0000.0001) %MON dynstat_salt_sd              =   2.7629374979772E-01
(PID.TID 0000.0001) %MON dynstat_salt_del2            =   1.0325435860392E-06
(PID.TID 0000.0001) %MON advcfl_uvel_max              =   2.2552460297361E-03
(PID.TID 0000.0001) %MON advcfl_vvel_max              =   1.7914467712710E-03
(PID.TID 0000.0001) %MON advcfl_wvel_max              =   4.4690186424404E-03
(PID.TID 0000.0001) %MON advcfl_W_hf_max              =   4.4690186424404E-03
(PID.TID 0000.0001) %MON pe_b_mean                    =  -8.3110248706462E-01
(PID.TID 0000.0001) %MON ke_max                       =   1.8060885982095E-04
(PID.TID 0000.0001) %MON ke_mean                      =   3.0386232754315E-07
(PID.TID 0000.0001) %MON ke_vol                       =   4.2724809996133E+12
(PID.TID 0000.0001) // =======================================================
(PID.TID 0000.0001) // End MONITOR dynamic field statistics
(PID.TID 0000.0001) // =======================================================
(PID.TID 0000.0001) // =======================================================
(PID.TID 0000.0001) // Begin OBCS MONITOR field statistics
(PID.TID 0000.0001) // =======================================================
(PID.TID 0000.0001) %MON obc_N_vVel_max               =   1.5102105715440E-05
(PID.TID 0000.0001) %MON obc_N_vVel_min               =   1.5102105715440E-05
(PID.TID 0000.0001) %MON obc_N_vVel_mean              =   1.5102105715440E-05
(PID.TID 0000.0001) %MON obc_N_vVel_sd                =   4.8233240330766E-13
(PID.TID 0000.0001) %MON obc_N_vVel_Int               =   9.9673897721901E+02
(PID.TID 0000.0001) // =======================================================
(PID.TID 0000.0001) // End OBCS MONITOR field statistics
(PID.TID 0000.0001) // =======================================================
 cg2d: Sum(rhs),rhsMax =   4.51588494932383E+00  2.99933528811489E+02
(PID.TID 0000.0001)      cg2d_init_res =   7.41882182563006E-06
(PID.TID 0000.0001)      cg2d_iters(min,last) =      -1      82
(PID.TID 0000.0001)      cg2d_last_res =   8.98883726628167E-12
(PID.TID 0000.0001) // =======================================================
(PID.TID 0000.0001) // Begin MONITOR dynamic field statistics
(PID.TID 0000.0001) // =======================================================
(PID.TID 0000.0001) %MON time_tsnumber                =                  1044
(PID.TID 0000.0001) %MON time_secondsf                =   1.0440000000000E+05
(PID.TID 0000.0001) %MON dynstat_eta_max              =   5.7957583570671E+00
(PID.TID 0000.0001) %MON dynstat_eta_min              =  -1.4200117646799E+01
(PID.TID 0000.0001) %MON dynstat_eta_mean             =  -2.5082690899211E+00
(PID.TID 0000.0001) %MON dynstat_eta_sd               =   4.9513967726882E+00
(PID.TID 0000.0001) %MON dynstat_eta_del2             =   2.0715047515339E-01
(PID.TID 0000.0001) %MON dynstat_uvel_max             =   5.0947615463954E-03
(PID.TID 0000.0001) %MON dynstat_uvel_min             =  -2.2613955427976E-02
(PID.TID 0000.0001) %MON dynstat_uvel_mean            =  -1.1726931693329E-07
(PID.TID 0000.0001) %MON dynstat_uvel_sd              =   6.7065650695718E-04
(PID.TID 0000.0001) %MON dynstat_uvel_del2            =   9.8819644368259E-07
(PID.TID 0000.0001) %MON dynstat_vvel_max             =   1.7957266758191E-02
(PID.TID 0000.0001) %MON dynstat_vvel_min             =  -7.3593053983343E-03
(PID.TID 0000.0001) %MON dynstat_vvel_mean            =   1.5475600445914E-05
(PID.TID 0000.0001) %MON dynstat_vvel_sd              =   4.1174128262601E-04
(PID.TID 0000.0001) %MON dynstat_vvel_del2            =   8.2682843121062E-07
(PID.TID 0000.0001) %MON dynstat_wvel_max             =   8.9616230898866E-04
(PID.TID 0000.0001) %MON dynstat_wvel_min             =  -8.7114294367257E-04
(PID.TID 0000.0001) %MON dynstat_wvel_mean            =   7.7112996081503E-09
(PID.TID 0000.0001) %MON dynstat_wvel_sd              =   1.8361221756228E-05
(PID.TID 0000.0001) %MON dynstat_wvel_del2            =   8.1118363359120E-08
(PID.TID 0000.0001) %MON dynstat_theta_max            =   1.2000000000000E+00
(PID.TID 0000.0001) %MON dynstat_theta_min            =  -1.0000000000000E+00
(PID.TID 0000.0001) %MON dynstat_theta_mean           =   5.6874568680861E-01
(PID.TID 0000.0001) %MON dynstat_theta_sd             =   8.6839064255461E-01
(PID.TID 0000.0001) %MON dynstat_theta_del2           =   2.6227042201266E-06
(PID.TID 0000.0001) %MON dynstat_salt_max             =   3.4700000000000E+01
(PID.TID 0000.0001) %MON dynstat_salt_min             =   3.4000000000000E+01
(PID.TID 0000.0001) %MON dynstat_salt_mean            =   3.4499112449657E+01
(PID.TID 0000.0001) %MON dynstat_salt_sd              =   2.7629357919191E-01
(PID.TID 0000.0001) %MON dynstat_salt_del2            =   1.0345738855510E-06
(PID.TID 0000.0001) %MON advcfl_uvel_max              =   2.2613955427976E-03
(PID.TID 0000.0001) %MON advcfl_vvel_max              =   1.7957266758191E-03
(PID.TID 0000.0001) %MON advcfl_wvel_max              =   4.4808115449433E-03
(PID.TID 0000.0001) %MON advcfl_W_hf_max              =   4.4808115449433E-03
(PID.TID 0000.0001) %MON pe_b_mean                    =  -8.3110507436949E-01
(PID.TID 0000.0001) %MON ke_max                       =   1.8164162532716E-04
(PID.TID 0000.0001) %MON ke_mean                      =   3.0531150911631E-07
(PID.TID 0000.0001) %MON ke_vol                       =   4.2724809407143E+12
(PID.TID 0000.0001) // =======================================================
(PID.TID 0000.0001) // End MONITOR dynamic field statistics
(PID.TID 0000.0001) // =======================================================
(PID.TID 0000.0001) // =======================================================
(PID.TID 0000.0001) // Begin OBCS MONITOR field statistics
(PID.TID 0000.0001) // =======================================================
(PID.TID 0000.0001) %MON obc_N_vVel_max               =   1.5145674493980E-05
(PID.TID 0000.0001) %MON obc_N_vVel_min               =   1.5145674493980E-05
(PID.TID 0000.0001) %MON obc_N_vVel_mean              =   1.5145674493980E-05
(PID.TID 0000.0001) %MON obc_N_vVel_sd                =   1.5082263372985E-12
(PID.TID 0000.0001) %MON obc_N_vVel_Int               =   9.9961451660267E+02
(PID.TID 0000.0001) // =======================================================
(PID.TID 0000.0001) // End OBCS MONITOR field statistics
(PID.TID 0000.0001) // =======================================================
 cg2d: Sum(rhs),rhsMax =   4.50983948492021E+00  2.99933627787979E+02
(PID.TID 0000.0001)      cg2d_init_res =   3.51841311785350E-05
(PID.TID 0000.0001)      cg2d_iters(min,last) =      -1      86
(PID.TID 0000.0001)      cg2d_last_res =   8.32937251356514E-12
(PID.TID 0000.0001) // =======================================================
(PID.TID 0000.0001) // Begin MONITOR dynamic field statistics
(PID.TID 0000.0001) // =======================================================
(PID.TID 0000.0001) %MON time_tsnumber                =                  1045
(PID.TID 0000.0001) %MON time_secondsf                =   1.0450000000000E+05
(PID.TID 0000.0001) %MON dynstat_eta_max              =   5.7993334215224E+00
(PID.TID 0000.0001) %MON dynstat_eta_min              =  -1.4197927631118E+01
(PID.TID 0000.0001) %MON dynstat_eta_mean             =  -2.5049120693585E+00
(PID.TID 0000.0001) %MON dynstat_eta_sd               =   4.9502484429510E+00
(PID.TID 0000.0001) %MON dynstat_eta_del2             =   2.0715128765041E-01
(PID.TID 0000.0001) %MON dynstat_uvel_max             =   5.1074930811588E-03
(PID.TID 0000.0001) %MON dynstat_uvel_min             =  -2.2675538569685E-02
(PID.TID 0000.0001) %MON dynstat_uvel_mean            =  -1.1301073942904E-07
(PID.TID 0000.0001) %MON dynstat_uvel_sd              =   6.7232694645829E-04
(PID.TID 0000.0001) %MON dynstat_uvel_del2            =   9.9048787306489E-07
(PID.TID 0000.0001) %MON dynstat_vvel_max             =   1.8000119952260E-02
(PID.TID 0000.0001) %MON dynstat_vvel_min             =  -7.3720113020537E-03
(PID.TID 0000.0001) %MON dynstat_vvel_mean            =   1.5519259935498E-05
(PID.TID 0000.0001) %MON dynstat_vvel_sd              =   4.1259120022574E-04
(PID.TID 0000.0001) %MON dynstat_vvel_del2            =   8.2869550207937E-07
(PID.TID 0000.0001) %MON dynstat_wvel_max             =   8.9852488879174E-04
(PID.TID 0000.0001) %MON dynstat_wvel_min             =  -8.7336521493884E-04
(PID.TID 0000.0001) %MON dynstat_wvel_mean            =   7.7055079083278E-09
(PID.TID 0000.0001) %MON dynstat_wvel_sd              =   1.8443453726697E-05
(PID.TID 0000.0001) %MON dynstat_wvel_del2            =   8.1718478513553E-08
(PID.TID 0000.0001) %MON dynstat_theta_max            =   1.2000000000000E+00
(PID.TID 0000.0001) %MON dynstat_theta_min            =  -1.0000000000000E+00
(PID.TID 0000.0001) %MON dynstat_theta_mean           =   5.6874486457953E-01
(PID.TID 0000.0001) %MON dynstat_theta_sd             =   8.6839019086237E-01
(PID.TID 0000.0001) %MON dynstat_theta_del2           =   2.6548952995236E-06
(PID.TID 0000.0001) %MON dynstat_salt_max             =   3.4700000000000E+01
(PID.TID 0000.0001) %MON dynstat_salt_min             =   3.4000000000000E+01
(PID.TID 0000.0001) %MON dynstat_salt_mean            =   3.4499112120696E+01
(PID.TID 0000.0001) %MON dynstat_salt_sd              =   2.7629340589185E-01
(PID.TID 0000.0001) %MON dynstat_salt_del2            =   1.0436674622744E-06
(PID.TID 0000.0001) %MON advcfl_uvel_max              =   2.2675538569685E-03
(PID.TID 0000.0001) %MON advcfl_vvel_max              =   1.8000119952260E-03
(PID.TID 0000.0001) %MON advcfl_wvel_max              =   4.4926244439587E-03
(PID.TID 0000.0001) %MON advcfl_W_hf_max              =   4.4926244439587E-03
(PID.TID 0000.0001) %MON pe_b_mean                    =  -8.3010036075029E-01
(PID.TID 0000.0001) %MON ke_max                       =   1.8267913391858E-04
(PID.TID 0000.0001) %MON ke_mean                      =   3.0676192103859E-07
(PID.TID 0000.0001) %MON ke_vol                       =   4.2724808816059E+12
(PID.TID 0000.0001) // =======================================================
(PID.TID 0000.0001) // End MONITOR dynamic field statistics
(PID.TID 0000.0001) // =======================================================
(PID.TID 0000.0001) // =======================================================
(PID.TID 0000.0001) // Begin OBCS MONITOR field statistics
(PID.TID 0000.0001) // =======================================================
(PID.TID 0000.0001) %MON obc_N_vVel_max               =   1.5186199370739E-05
(PID.TID 0000.0001) %MON obc_N_vVel_min               =   1.5186199370739E-05
(PID.TID 0000.0001) %MON obc_N_vVel_mean              =   1.5186199370739E-05
(PID.TID 0000.0001) %MON obc_N_vVel_sd                =  -8.7112458259491E-24
(PID.TID 0000.0001) %MON obc_N_vVel_Int               =   1.0022891584688E+03
(PID.TID 0000.0001) // =======================================================
(PID.TID 0000.0001) // End OBCS MONITOR field statistics
(PID.TID 0000.0001) // =======================================================
 cg2d: Sum(rhs),rhsMax =   4.50985601198378E+00  2.99933727332354E+02
(PID.TID 0000.0001)      cg2d_init_res =   7.50762997710422E-06
(PID.TID 0000.0001)      cg2d_iters(min,last) =      -1      82
(PID.TID 0000.0001)      cg2d_last_res =   9.01648817738247E-12
(PID.TID 0000.0001) // =======================================================
(PID.TID 0000.0001) // Begin MONITOR dynamic field statistics
(PID.TID 0000.0001) // =======================================================
(PID.TID 0000.0001) %MON time_tsnumber                =                  1046
(PID.TID 0000.0001) %MON time_secondsf                =   1.0460000000000E+05
(PID.TID 0000.0001) %MON dynstat_eta_max              =   5.7993163265847E+00
(PID.TID 0000.0001) %MON dynstat_eta_min              =  -1.4197944774031E+01
(PID.TID 0000.0001) %MON dynstat_eta_mean             =  -2.5049220803824E+00
(PID.TID 0000.0001) %MON dynstat_eta_sd               =   4.9502520617714E+00
(PID.TID 0000.0001) %MON dynstat_eta_del2             =   2.0715131734308E-01
(PID.TID 0000.0001) %MON dynstat_uvel_max             =   5.1202531639625E-03
(PID.TID 0000.0001) %MON dynstat_uvel_min             =  -2.2737230636389E-02
(PID.TID 0000.0001) %MON dynstat_uvel_mean            =  -1.1030775030370E-07
(PID.TID 0000.0001) %MON dynstat_uvel_sd              =   6.7400105263895E-04
(PID.TID 0000.0001) %MON dynstat_uvel_del2            =   9.9279190660608E-07
(PID.TID 0000.0001) %MON dynstat_vvel_max             =   1.8043027016851E-02
(PID.TID 0000.0001) %MON dynstat_vvel_min             =  -7.3847197666375E-03
(PID.TID 0000.0001) %MON dynstat_vvel_mean            =   1.5559525601436E-05
(PID.TID 0000.0001) %MON dynstat_vvel_sd              =   4.1343203610062E-04
(PID.TID 0000.0001) %MON dynstat_vvel_del2            =   8.3049350281508E-07
(PID.TID 0000.0001) %MON dynstat_wvel_max             =   9.0089146646452E-04
(PID.TID 0000.0001) %MON dynstat_wvel_min             =  -8.7559338815084E-04
(PID.TID 0000.0001) %MON dynstat_wvel_mean            =   7.7076990404863E-09
(PID.TID 0000.0001) %MON dynstat_wvel_sd              =   1.8491548575786E-05
(PID.TID 0000.0001) %MON dynstat_wvel_del2            =   8.2155487619417E-08
(PID.TID 0000.0001) %MON dynstat_theta_max            =   1.2000000000000E+00
(PID.TID 0000.0001) %MON dynstat_theta_min            =  -1.0000000000000E+00
(PID.TID 0000.0001) %MON dynstat_theta_mean           =   5.6874404081154E-01
(PID.TID 0000.0001) %MON dynstat_theta_sd             =   8.6838974555043E-01
(PID.TID 0000.0001) %MON dynstat_theta_del2           =   2.6596751550936E-06
(PID.TID 0000.0001) %MON dynstat_salt_max             =   3.4700000000000E+01
(PID.TID 0000.0001) %MON dynstat_salt_min             =   3.4000000000000E+01
(PID.TID 0000.0001) %MON dynstat_salt_mean            =   3.4499111791115E+01
(PID.TID 0000.0001) %MON dynstat_salt_sd              =   2.7629323461017E-01
(PID.TID 0000.0001) %MON dynstat_salt_del2            =   1.0456607943156E-06
(PID.TID 0000.0001) %MON advcfl_uvel_max              =   2.2737230636389E-03
(PID.TID 0000.0001) %MON advcfl_vvel_max              =   1.8043027016851E-03
(PID.TID 0000.0001) %MON advcfl_wvel_max              =   4.5044573323226E-03
(PID.TID 0000.0001) %MON advcfl_W_hf_max              =   4.5044573323226E-03
(PID.TID 0000.0001) %MON pe_b_mean                    =  -8.3010295701057E-01
(PID.TID 0000.0001) %MON ke_max                       =   1.8372165574788E-04
(PID.TID 0000.0001) %MON ke_mean                      =   3.0821440799033E-07
(PID.TID 0000.0001) %MON ke_vol                       =   4.2724808223080E+12
(PID.TID 0000.0001) // =======================================================
(PID.TID 0000.0001) // End MONITOR dynamic field statistics
(PID.TID 0000.0001) // =======================================================
(PID.TID 0000.0001) // =======================================================
(PID.TID 0000.0001) // Begin OBCS MONITOR field statistics
(PID.TID 0000.0001) // =======================================================
(PID.TID 0000.0001) %MON obc_N_vVel_max               =   1.5223435975043E-05
(PID.TID 0000.0001) %MON obc_N_vVel_min               =   1.5223435975042E-05
(PID.TID 0000.0001) %MON obc_N_vVel_mean              =   1.5223435975042E-05
(PID.TID 0000.0001) %MON obc_N_vVel_sd                =   3.7739920737062E-12
(PID.TID 0000.0001) %MON obc_N_vVel_Int               =   1.0047467743528E+03
(PID.TID 0000.0001) // =======================================================
(PID.TID 0000.0001) // End OBCS MONITOR field statistics
(PID.TID 0000.0001) // =======================================================
 cg2d: Sum(rhs),rhsMax =   4.50987257731325E+00  2.99933827282674E+02
(PID.TID 0000.0001)      cg2d_init_res =   7.49436300190603E-06
(PID.TID 0000.0001)      cg2d_iters(min,last) =      -1      82
(PID.TID 0000.0001)      cg2d_last_res =   9.06998746897607E-12
(PID.TID 0000.0001) // =======================================================
(PID.TID 0000.0001) // Begin MONITOR dynamic field statistics
(PID.TID 0000.0001) // =======================================================
(PID.TID 0000.0001) %MON time_tsnumber                =                  1047
(PID.TID 0000.0001) %MON time_secondsf                =   1.0470000000000E+05
(PID.TID 0000.0001) %MON dynstat_eta_max              =   5.7992981409908E+00
(PID.TID 0000.0001) %MON dynstat_eta_min              =  -1.4197961943469E+01
(PID.TID 0000.0001) %MON dynstat_eta_mean             =  -2.5049321160569E+00
(PID.TID 0000.0001) %MON dynstat_eta_sd               =   4.9502556874329E+00
(PID.TID 0000.0001) %MON dynstat_eta_del2             =   2.0715134694378E-01
(PID.TID 0000.0001) %MON dynstat_uvel_max             =   5.1330196833277E-03
(PID.TID 0000.0001) %MON dynstat_uvel_min             =  -2.2799061106096E-02
(PID.TID 0000.0001) %MON dynstat_uvel_mean            =  -1.0938282902200E-07
(PID.TID 0000.0001) %MON dynstat_uvel_sd              =   6.7567836449180E-04
(PID.TID 0000.0001) %MON dynstat_uvel_del2            =   9.9510344176198E-07
(PID.TID 0000.0001) %MON dynstat_vvel_max             =   1.8085987607731E-02
(PID.TID 0000.0001) %MON dynstat_vvel_min             =  -7.3974103261172E-03
(PID.TID 0000.0001) %MON dynstat_vvel_mean            =   1.5595700014413E-05
(PID.TID 0000.0001) %MON dynstat_vvel_sd              =   4.1426295941491E-04
(PID.TID 0000.0001) %MON dynstat_vvel_del2            =   8.3219722163410E-07
(PID.TID 0000.0001) %MON dynstat_wvel_max             =   9.0326204338958E-04
(PID.TID 0000.0001) %MON dynstat_wvel_min             =  -8.7782814381666E-04
(PID.TID 0000.0001) %MON dynstat_wvel_mean            =   7.7404028548032E-09
(PID.TID 0000.0001) %MON dynstat_wvel_sd              =   1.8504531131043E-05
(PID.TID 0000.0001) %MON dynstat_wvel_del2            =   8.2415407577346E-08
(PID.TID 0000.0001) %MON dynstat_theta_max            =   1.2000000000000E+00
(PID.TID 0000.0001) %MON dynstat_theta_min            =  -1.0000000000000E+00
(PID.TID 0000.0001) %MON dynstat_theta_mean           =   5.6874321550020E-01
(PID.TID 0000.0001) %MON dynstat_theta_sd             =   8.6838929938483E-01
(PID.TID 0000.0001) %MON dynstat_theta_del2           =   2.6645758653376E-06
(PID.TID 0000.0001) %MON dynstat_salt_max             =   3.4700000000000E+01
(PID.TID 0000.0001) %MON dynstat_salt_min             =   3.4000000000000E+01
(PID.TID 0000.0001) %MON dynstat_salt_mean            =   3.4499111460913E+01
(PID.TID 0000.0001) %MON dynstat_salt_sd              =   2.7629306299804E-01
(PID.TID 0000.0001) %MON dynstat_salt_del2            =   1.0476866444782E-06
(PID.TID 0000.0001) %MON advcfl_uvel_max              =   2.2799061106096E-03
(PID.TID 0000.0001) %MON advcfl_vvel_max              =   1.8085987607731E-03
(PID.TID 0000.0001) %MON advcfl_wvel_max              =   4.5163102169479E-03
(PID.TID 0000.0001) %MON advcfl_W_hf_max              =   4.5163102169479E-03
(PID.TID 0000.0001) %MON pe_b_mean                    =  -8.3010555811357E-01
(PID.TID 0000.0001) %MON ke_max                       =   1.8476969098656E-04
(PID.TID 0000.0001) %MON ke_mean                      =   3.0966830436215E-07
(PID.TID 0000.0001) %MON ke_vol                       =   4.2724807628425E+12
(PID.TID 0000.0001) // =======================================================
(PID.TID 0000.0001) // End MONITOR dynamic field statistics
(PID.TID 0000.0001) // =======================================================
(PID.TID 0000.0001) // =======================================================
(PID.TID 0000.0001) // Begin OBCS MONITOR field statistics
(PID.TID 0000.0001) // =======================================================
(PID.TID 0000.0001) %MON obc_N_vVel_max               =   1.5257474687537E-05
(PID.TID 0000.0001) %MON obc_N_vVel_min               =   1.5257474687537E-05
(PID.TID 0000.0001) %MON obc_N_vVel_mean              =   1.5257474687537E-05
(PID.TID 0000.0001) %MON obc_N_vVel_sd                =   3.9871515393202E-12
(PID.TID 0000.0001) %MON obc_N_vVel_Int               =   1.0069933293774E+03
(PID.TID 0000.0001) // =======================================================
(PID.TID 0000.0001) // End OBCS MONITOR field statistics
(PID.TID 0000.0001) // =======================================================
 cg2d: Sum(rhs),rhsMax =   4.50988917737000E+00  2.99933927455898E+02
(PID.TID 0000.0001)      cg2d_init_res =   7.50738416425261E-06
(PID.TID 0000.0001)      cg2d_iters(min,last) =      -1      82
(PID.TID 0000.0001)      cg2d_last_res =   9.05947636595538E-12
(PID.TID 0000.0001) // =======================================================
(PID.TID 0000.0001) // Begin MONITOR dynamic field statistics
(PID.TID 0000.0001) // =======================================================
(PID.TID 0000.0001) %MON time_tsnumber                =                  1048
(PID.TID 0000.0001) %MON time_secondsf                =   1.0480000000000E+05
(PID.TID 0000.0001) %MON dynstat_eta_max              =   5.7992766152187E+00
(PID.TID 0000.0001) %MON dynstat_eta_min              =  -1.4197979125720E+01
(PID.TID 0000.0001) %MON dynstat_eta_mean             =  -2.5049421728878E+00
(PID.TID 0000.0001) %MON dynstat_eta_sd               =   4.9502593175598E+00
(PID.TID 0000.0001) %MON dynstat_eta_del2             =   2.0715137657008E-01
(PID.TID 0000.0001) %MON dynstat_uvel_max             =   5.1457950818374E-03
(PID.TID 0000.0001) %MON dynstat_uvel_min             =  -2.2861025892047E-02
(PID.TID 0000.0001) %MON dynstat_uvel_mean            =  -1.0893714561906E-07
(PID.TID 0000.0001) %MON dynstat_uvel_sd              =   6.7735887134503E-04
(PID.TID 0000.0001) %MON dynstat_uvel_del2            =   9.9742241918412E-07
(PID.TID 0000.0001) %MON dynstat_vvel_max             =   1.8129001341891E-02
(PID.TID 0000.0001) %MON dynstat_vvel_min             =  -7.4101104390181E-03
(PID.TID 0000.0001) %MON dynstat_vvel_mean            =   1.5627069071952E-05
(PID.TID 0000.0001) %MON dynstat_vvel_sd              =   4.1508420216292E-04
(PID.TID 0000.0001) %MON dynstat_vvel_del2            =   8.3380577920502E-07
(PID.TID 0000.0001) %MON dynstat_wvel_max             =   9.0563662334784E-04
(PID.TID 0000.0001) %MON dynstat_wvel_min             =  -8.8006590011594E-04
(PID.TID 0000.0001) %MON dynstat_wvel_mean            =   7.7676823646857E-09
(PID.TID 0000.0001) %MON dynstat_wvel_sd              =   1.8482853300666E-05
(PID.TID 0000.0001) %MON dynstat_wvel_del2            =   8.2491863921136E-08
(PID.TID 0000.0001) %MON dynstat_theta_max            =   1.2000000000000E+00
(PID.TID 0000.0001) %MON dynstat_theta_min            =  -1.0000000000000E+00
(PID.TID 0000.0001) %MON dynstat_theta_mean           =   5.6874238863538E-01
(PID.TID 0000.0001) %MON dynstat_theta_sd             =   8.6838885237339E-01
(PID.TID 0000.0001) %MON dynstat_theta_del2           =   2.6695998622626E-06
(PID.TID 0000.0001) %MON dynstat_salt_max             =   3.4700000000000E+01
(PID.TID 0000.0001) %MON dynstat_salt_min             =   3.4000000000000E+01
(PID.TID 0000.0001) %MON dynstat_salt_mean            =   3.4499111130087E+01
(PID.TID 0000.0001) %MON dynstat_salt_sd              =   2.7629289105781E-01
(PID.TID 0000.0001) %MON dynstat_salt_del2            =   1.0497457147523E-06
(PID.TID 0000.0001) %MON advcfl_uvel_max              =   2.2861025892047E-03
(PID.TID 0000.0001) %MON advcfl_vvel_max              =   1.8129001341891E-03
(PID.TID 0000.0001) %MON advcfl_wvel_max              =   4.5281831167392E-03
(PID.TID 0000.0001) %MON advcfl_W_hf_max              =   4.5281831167392E-03
(PID.TID 0000.0001) %MON pe_b_mean                    =  -8.3010816312671E-01
(PID.TID 0000.0001) %MON ke_max                       =   1.8582326278255E-04
(PID.TID 0000.0001) %MON ke_mean                      =   3.1112367870434E-07
(PID.TID 0000.0001) %MON ke_vol                       =   4.2724807032306E+12
(PID.TID 0000.0001) // =======================================================
(PID.TID 0000.0001) // End MONITOR dynamic field statistics
(PID.TID 0000.0001) // =======================================================
(PID.TID 0000.0001) // =======================================================
(PID.TID 0000.0001) // Begin OBCS MONITOR field statistics
(PID.TID 0000.0001) // =======================================================
(PID.TID 0000.0001) %MON obc_N_vVel_max               =   1.5288386344763E-05
(PID.TID 0000.0001) %MON obc_N_vVel_min               =   1.5288386344763E-05
(PID.TID 0000.0001) %MON obc_N_vVel_mean              =   1.5288386344763E-05
(PID.TID 0000.0001) %MON obc_N_vVel_sd                =  -7.2378303598390E-24
(PID.TID 0000.0001) %MON obc_N_vVel_Int               =   1.0090334987544E+03
(PID.TID 0000.0001) // =======================================================
(PID.TID 0000.0001) // End OBCS MONITOR field statistics
(PID.TID 0000.0001) // =======================================================
 cg2d: Sum(rhs),rhsMax =   4.50990580808428E+00  2.99934027640851E+02
(PID.TID 0000.0001)      cg2d_init_res =   7.51543619234257E-06
(PID.TID 0000.0001)      cg2d_iters(min,last) =      -1      82
(PID.TID 0000.0001)      cg2d_last_res =   9.00655940277002E-12
(PID.TID 0000.0001) // =======================================================
(PID.TID 0000.0001) // Begin MONITOR dynamic field statistics
(PID.TID 0000.0001) // =======================================================
(PID.TID 0000.0001) %MON time_tsnumber                =                  1049
(PID.TID 0000.0001) %MON time_secondsf                =   1.0490000000000E+05
(PID.TID 0000.0001) %MON dynstat_eta_max              =   5.7992548742789E+00
(PID.TID 0000.0001) %MON dynstat_eta_min              =  -1.4197996311864E+01
(PID.TID 0000.0001) %MON dynstat_eta_mean             =  -2.5049522468511E+00
(PID.TID 0000.0001) %MON dynstat_eta_sd               =   4.9502629492831E+00
(PID.TID 0000.0001) %MON dynstat_eta_del2             =   2.0715140625701E-01
(PID.TID 0000.0001) %MON dynstat_uvel_max             =   5.1585976036144E-03
(PID.TID 0000.0001) %MON dynstat_uvel_min             =  -2.2923105264249E-02
(PID.TID 0000.0001) %MON dynstat_uvel_mean            =  -1.0863919610972E-07
(PID.TID 0000.0001) %MON dynstat_uvel_sd              =   6.7904264776569E-04
(PID.TID 0000.0001) %MON dynstat_uvel_del2            =   9.9974877918476E-07
(PID.TID 0000.0001) %MON dynstat_vvel_max             =   1.8172067938529E-02
(PID.TID 0000.0001) %MON dynstat_vvel_min             =  -7.4228442897892E-03
(PID.TID 0000.0001) %MON dynstat_vvel_mean            =   1.5653108358991E-05
(PID.TID 0000.0001) %MON dynstat_vvel_sd              =   4.1589630186684E-04
(PID.TID 0000.0001) %MON dynstat_vvel_del2            =   8.3532216895142E-07
(PID.TID 0000.0001) %MON dynstat_wvel_max             =   9.0801521133953E-04
(PID.TID 0000.0001) %MON dynstat_wvel_min             =  -8.8230521006132E-04
(PID.TID 0000.0001) %MON dynstat_wvel_mean            =   7.7717042822996E-09
(PID.TID 0000.0001) %MON dynstat_wvel_sd              =   1.8428373084424E-05
(PID.TID 0000.0001) %MON dynstat_wvel_del2            =   8.2385771334013E-08
(PID.TID 0000.0001) %MON dynstat_theta_max            =   1.2000000000000E+00
(PID.TID 0000.0001) %MON dynstat_theta_min            =  -1.0000000000000E+00
(PID.TID 0000.0001) %MON dynstat_theta_mean           =   5.6874156021435E-01
(PID.TID 0000.0001) %MON dynstat_theta_sd             =   8.6838840452845E-01
(PID.TID 0000.0001) %MON dynstat_theta_del2           =   2.6747454202038E-06
(PID.TID 0000.0001) %MON dynstat_salt_max             =   3.4700000000000E+01
(PID.TID 0000.0001) %MON dynstat_salt_min             =   3.4000000000000E+01
(PID.TID 0000.0001) %MON dynstat_salt_mean            =   3.4499110798637E+01
(PID.TID 0000.0001) %MON dynstat_salt_sd              =   2.7629271879334E-01
(PID.TID 0000.0001) %MON dynstat_salt_del2            =   1.0518377596336E-06
(PID.TID 0000.0001) %MON advcfl_uvel_max              =   2.2923105264249E-03
(PID.TID 0000.0001) %MON advcfl_vvel_max              =   1.8172067938529E-03
(PID.TID 0000.0001) %MON advcfl_wvel_max              =   4.5400760566976E-03
(PID.TID 0000.0001) %MON advcfl_W_hf_max              =   4.5400760566976E-03
(PID.TID 0000.0001) %MON pe_b_mean                    =  -8.3011077045845E-01
(PID.TID 0000.0001) %MON ke_max                       =   1.8688209198153E-04
(PID.TID 0000.0001) %MON ke_mean                      =   3.1258078748490E-07
(PID.TID 0000.0001) %MON ke_vol                       =   4.2724806434930E+12
(PID.TID 0000.0001) // =======================================================
(PID.TID 0000.0001) // End MONITOR dynamic field statistics
(PID.TID 0000.0001) // =======================================================
(PID.TID 0000.0001) // =======================================================
(PID.TID 0000.0001) // Begin OBCS MONITOR field statistics
(PID.TID 0000.0001) // =======================================================
(PID.TID 0000.0001) %MON obc_N_vVel_max               =   1.5315689120952E-05
(PID.TID 0000.0001) %MON obc_N_vVel_min               =   1.5315689120951E-05
(PID.TID 0000.0001) %MON obc_N_vVel_mean              =   1.5315689120951E-05
(PID.TID 0000.0001) %MON obc_N_vVel_sd                =   3.5297886589115E-12
(PID.TID 0000.0001) %MON obc_N_vVel_Int               =   1.0108354819828E+03
(PID.TID 0000.0001) // =======================================================
(PID.TID 0000.0001) // End OBCS MONITOR field statistics
(PID.TID 0000.0001) // =======================================================
 cg2d: Sum(rhs),rhsMax =   4.50992246340848E+00  2.99934127621939E+02
(PID.TID 0000.0001)      cg2d_init_res =   7.51781658599342E-06
(PID.TID 0000.0001)      cg2d_iters(min,last) =      -1      82
(PID.TID 0000.0001)      cg2d_last_res =   8.91844276736820E-12
(PID.TID 0000.0001) // =======================================================
(PID.TID 0000.0001) // Begin MONITOR dynamic field statistics
(PID.TID 0000.0001) // =======================================================
(PID.TID 0000.0001) %MON time_tsnumber                =                  1050
(PID.TID 0000.0001) %MON time_secondsf                =   1.0500000000000E+05
(PID.TID 0000.0001) %MON dynstat_eta_max              =   5.7992330268474E+00
(PID.TID 0000.0001) %MON dynstat_eta_min              =  -1.4198013500482E+01
(PID.TID 0000.0001) %MON dynstat_eta_mean             =  -2.5049623327871E+00
(PID.TID 0000.0001) %MON dynstat_eta_sd               =   4.9502665790691E+00
(PID.TID 0000.0001) %MON dynstat_eta_del2             =   2.0715143600153E-01
(PID.TID 0000.0001) %MON dynstat_uvel_max             =   5.1714364686681E-03
(PID.TID 0000.0001) %MON dynstat_uvel_min             =  -2.2985287630454E-02
(PID.TID 0000.0001) %MON dynstat_uvel_mean            =  -1.0870620971359E-07
(PID.TID 0000.0001) %MON dynstat_uvel_sd              =   6.8072975341543E-04
(PID.TID 0000.0001) %MON dynstat_uvel_del2            =   1.0020824507618E-06
(PID.TID 0000.0001) %MON dynstat_vvel_max             =   1.8215187408459E-02
(PID.TID 0000.0001) %MON dynstat_vvel_min             =  -7.4356073142550E-03
(PID.TID 0000.0001) %MON dynstat_vvel_mean            =   1.5673392536921E-05
(PID.TID 0000.0001) %MON dynstat_vvel_sd              =   4.1670022634605E-04
(PID.TID 0000.0001) %MON dynstat_vvel_del2            =   8.3675294759345E-07
(PID.TID 0000.0001) %MON dynstat_wvel_max             =   9.1039779648382E-04
(PID.TID 0000.0001) %MON dynstat_wvel_min             =  -8.8454722091091E-04
(PID.TID 0000.0001) %MON dynstat_wvel_mean            =   7.7504759050763E-09
(PID.TID 0000.0001) %MON dynstat_wvel_sd              =   1.8344269717860E-05
(PID.TID 0000.0001) %MON dynstat_wvel_del2            =   8.2105430393174E-08
(PID.TID 0000.0001) %MON dynstat_theta_max            =   1.2000000000000E+00
(PID.TID 0000.0001) %MON dynstat_theta_min            =  -1.0000000000000E+00
(PID.TID 0000.0001) %MON dynstat_theta_mean           =   5.6874073023502E-01
(PID.TID 0000.0001) %MON dynstat_theta_sd             =   8.6838795585954E-01
(PID.TID 0000.0001) %MON dynstat_theta_del2           =   2.6800064967220E-06
(PID.TID 0000.0001) %MON dynstat_salt_max             =   3.4700000000000E+01
(PID.TID 0000.0001) %MON dynstat_salt_min             =   3.4000000000000E+01
(PID.TID 0000.0001) %MON dynstat_salt_mean            =   3.4499110466560E+01
(PID.TID 0000.0001) %MON dynstat_salt_sd              =   2.7629254620757E-01
(PID.TID 0000.0001) %MON dynstat_salt_del2            =   1.0539613727808E-06
(PID.TID 0000.0001) %MON advcfl_uvel_max              =   2.2985287630454E-03
(PID.TID 0000.0001) %MON advcfl_vvel_max              =   1.8215187408459E-03
(PID.TID 0000.0001) %MON advcfl_wvel_max              =   4.5519889824191E-03
(PID.TID 0000.0001) %MON advcfl_W_hf_max              =   4.5519889824191E-03
(PID.TID 0000.0001) %MON pe_b_mean                    =  -8.3011337819999E-01
(PID.TID 0000.0001) %MON ke_max                       =   1.8794598695171E-04
(PID.TID 0000.0001) %MON ke_mean                      =   3.1404006074677E-07
(PID.TID 0000.0001) %MON ke_vol                       =   4.2724805836537E+12
(PID.TID 0000.0001) // =======================================================
(PID.TID 0000.0001) // End MONITOR dynamic field statistics
(PID.TID 0000.0001) // =======================================================
(PID.TID 0000.0001) // =======================================================
(PID.TID 0000.0001) // Begin OBCS MONITOR field statistics
(PID.TID 0000.0001) // =======================================================
(PID.TID 0000.0001) %MON obc_N_vVel_max               =   1.5338359105515E-05
(PID.TID 0000.0001) %MON obc_N_vVel_min               =   1.5338359105515E-05
(PID.TID 0000.0001) %MON obc_N_vVel_mean              =   1.5338359105515E-05
(PID.TID 0000.0001) %MON obc_N_vVel_sd                =  -1.5509636485369E-23
(PID.TID 0000.0001) %MON obc_N_vVel_Int               =   1.0123317009640E+03
(PID.TID 0000.0001) // =======================================================
(PID.TID 0000.0001) // End OBCS MONITOR field statistics
(PID.TID 0000.0001) // =======================================================
 cg2d: Sum(rhs),rhsMax =   4.50993913527733E+00  2.99934227188149E+02
(PID.TID 0000.0001)      cg2d_init_res =   7.51454935635195E-06
(PID.TID 0000.0001)      cg2d_iters(min,last) =      -1      82
(PID.TID 0000.0001)      cg2d_last_res =   8.82308891914629E-12
(PID.TID 0000.0001) // =======================================================
(PID.TID 0000.0001) // Begin MONITOR dynamic field statistics
(PID.TID 0000.0001) // =======================================================
(PID.TID 0000.0001) %MON time_tsnumber                =                  1051
(PID.TID 0000.0001) %MON time_secondsf                =   1.0510000000000E+05
(PID.TID 0000.0001) %MON dynstat_eta_max              =   5.7992110883203E+00
(PID.TID 0000.0001) %MON dynstat_eta_min              =  -1.4198030694673E+01
(PID.TID 0000.0001) %MON dynstat_eta_mean             =  -2.5049724244537E+00
(PID.TID 0000.0001) %MON dynstat_eta_sd               =   4.9502702045342E+00
(PID.TID 0000.0001) %MON dynstat_eta_del2             =   2.0715146580166E-01
(PID.TID 0000.0001) %MON dynstat_uvel_max             =   5.1843084594232E-03
(PID.TID 0000.0001) %MON dynstat_uvel_min             =  -2.3047572467986E-02
(PID.TID 0000.0001) %MON dynstat_uvel_mean            =  -1.0938708977534E-07
(PID.TID 0000.0001) %MON dynstat_uvel_sd              =   6.8242018825816E-04
(PID.TID 0000.0001) %MON dynstat_uvel_del2            =   1.0044233532965E-06
(PID.TID 0000.0001) %MON dynstat_vvel_max             =   1.8258360088067E-02
(PID.TID 0000.0001) %MON dynstat_vvel_min             =  -7.4483854641620E-03
(PID.TID 0000.0001) %MON dynstat_vvel_mean            =   1.5687532354349E-05
(PID.TID 0000.0001) %MON dynstat_vvel_sd              =   4.1749739442951E-04
(PID.TID 0000.0001) %MON dynstat_vvel_del2            =   8.3810788617701E-07
(PID.TID 0000.0001) %MON dynstat_wvel_max             =   9.1278435439726E-04
(PID.TID 0000.0001) %MON dynstat_wvel_min             =  -8.8679316724288E-04
(PID.TID 0000.0001) %MON dynstat_wvel_mean            =   7.7117573721687E-09
(PID.TID 0000.0001) %MON dynstat_wvel_sd              =   1.8234952132829E-05
(PID.TID 0000.0001) %MON dynstat_wvel_del2            =   8.1666104084825E-08
(PID.TID 0000.0001) %MON dynstat_theta_max            =   1.2000000000000E+00
(PID.TID 0000.0001) %MON dynstat_theta_min            =  -1.0000000000000E+00
(PID.TID 0000.0001) %MON dynstat_theta_mean           =   5.6873989869513E-01
(PID.TID 0000.0001) %MON dynstat_theta_sd             =   8.6838750637424E-01
(PID.TID 0000.0001) %MON dynstat_theta_del2           =   2.6853733275527E-06
(PID.TID 0000.0001) %MON dynstat_salt_max             =   3.4700000000000E+01
(PID.TID 0000.0001) %MON dynstat_salt_min             =   3.4000000000000E+01
(PID.TID 0000.0001) %MON dynstat_salt_mean            =   3.4499110133856E+01
(PID.TID 0000.0001) %MON dynstat_salt_sd              =   2.7629237330266E-01
(PID.TID 0000.0001) %MON dynstat_salt_del2            =   1.0561141739742E-06
(PID.TID 0000.0001) %MON advcfl_uvel_max              =   2.3047572467986E-03
(PID.TID 0000.0001) %MON advcfl_vvel_max              =   1.8258360088067E-03
(PID.TID 0000.0001) %MON advcfl_wvel_max              =   4.5639217719863E-03
(PID.TID 0000.0001) %MON advcfl_W_hf_max              =   4.5639217719863E-03
(PID.TID 0000.0001) %MON pe_b_mean                    =  -8.3011598443328E-01
(PID.TID 0000.0001) %MON ke_max                       =   1.8901493579588E-04
(PID.TID 0000.0001) %MON ke_mean                      =   3.1550208125978E-07
(PID.TID 0000.0001) %MON ke_vol                       =   4.2724805237432E+12
(PID.TID 0000.0001) // =======================================================
(PID.TID 0000.0001) // End MONITOR dynamic field statistics
(PID.TID 0000.0001) // =======================================================
(PID.TID 0000.0001) // =======================================================
(PID.TID 0000.0001) // Begin OBCS MONITOR field statistics
(PID.TID 0000.0001) // =======================================================
(PID.TID 0000.0001) %MON obc_N_vVel_max               =   1.5355422294420E-05
(PID.TID 0000.0001) %MON obc_N_vVel_min               =   1.5355422294420E-05
(PID.TID 0000.0001) %MON obc_N_vVel_mean              =   1.5355422294420E-05
(PID.TID 0000.0001) %MON obc_N_vVel_sd                =  -1.0856745539758E-24
(PID.TID 0000.0001) %MON obc_N_vVel_Int               =   1.0134578714317E+03
(PID.TID 0000.0001) // =======================================================
(PID.TID 0000.0001) // End OBCS MONITOR field statistics
(PID.TID 0000.0001) // =======================================================
 cg2d: Sum(rhs),rhsMax =   4.50995581459395E+00  2.99934326138973E+02
(PID.TID 0000.0001)      cg2d_init_res =   7.50583104424788E-06
(PID.TID 0000.0001)      cg2d_iters(min,last) =      -1      82
(PID.TID 0000.0001)      cg2d_last_res =   8.76263152766506E-12
(PID.TID 0000.0001) // =======================================================
(PID.TID 0000.0001) // Begin MONITOR dynamic field statistics
(PID.TID 0000.0001) // =======================================================
(PID.TID 0000.0001) %MON time_tsnumber                =                  1052
(PID.TID 0000.0001) %MON time_secondsf                =   1.0520000000000E+05
(PID.TID 0000.0001) %MON dynstat_eta_max              =   5.7991891112330E+00
(PID.TID 0000.0001) %MON dynstat_eta_min              =  -1.4198047896440E+01
(PID.TID 0000.0001) %MON dynstat_eta_mean             =  -2.5049825151237E+00
(PID.TID 0000.0001) %MON dynstat_eta_sd               =   4.9502738241758E+00
(PID.TID 0000.0001) %MON dynstat_eta_del2             =   2.0715149565558E-01
(PID.TID 0000.0001) %MON dynstat_uvel_max             =   5.1972075389273E-03
(PID.TID 0000.0001) %MON dynstat_uvel_min             =  -2.3109963967038E-02
(PID.TID 0000.0001) %MON dynstat_uvel_mean            =  -1.1074671671384E-07
(PID.TID 0000.0001) %MON dynstat_uvel_sd              =   6.8411391618820E-04
(PID.TID 0000.0001) %MON dynstat_uvel_del2            =   1.0067713998610E-06
(PID.TID 0000.0001) %MON dynstat_vvel_max             =   1.8301586410833E-02
(PID.TID 0000.0001) %MON dynstat_vvel_min             =  -7.4611720645983E-03
(PID.TID 0000.0001) %MON dynstat_vvel_mean            =   1.5695246086058E-05
(PID.TID 0000.0001) %MON dynstat_vvel_sd              =   4.1828957190492E-04
(PID.TID 0000.0001) %MON dynstat_vvel_del2            =   8.3939948588021E-07
(PID.TID 0000.0001) %MON dynstat_wvel_max             =   9.1517485540753E-04
(PID.TID 0000.0001) %MON dynstat_wvel_min             =  -8.8904339867328E-04
(PID.TID 0000.0001) %MON dynstat_wvel_mean            =   7.6633381381438E-09
(PID.TID 0000.0001) %MON dynstat_wvel_sd              =   1.8105921856154E-05
(PID.TID 0000.0001) %MON dynstat_wvel_del2            =   8.1089331129260E-08
(PID.TID 0000.0001) %MON dynstat_theta_max            =   1.2000000000000E+00
(PID.TID 0000.0001) %MON dynstat_theta_min            =  -1.0000000000000E+00
(PID.TID 0000.0001) %MON dynstat_theta_mean           =   5.6873906559143E-01
(PID.TID 0000.0001) %MON dynstat_theta_sd             =   8.6838705607958E-01
(PID.TID 0000.0001) %MON dynstat_theta_del2           =   2.6908329149804E-06
(PID.TID 0000.0001) %MON dynstat_salt_max             =   3.4700000000000E+01
(PID.TID 0000.0001) %MON dynstat_salt_min             =   3.4000000000000E+01
(PID.TID 0000.0001) %MON dynstat_salt_mean            =   3.4499109800525E+01
(PID.TID 0000.0001) %MON dynstat_salt_sd              =   2.7629220008109E-01
(PID.TID 0000.0001) %MON dynstat_salt_del2            =   1.0582929608851E-06
(PID.TID 0000.0001) %MON advcfl_uvel_max              =   2.3109963967038E-03
(PID.TID 0000.0001) %MON advcfl_vvel_max              =   1.8301586410833E-03
(PID.TID 0000.0001) %MON advcfl_wvel_max              =   4.5758742770377E-03
(PID.TID 0000.0001) %MON advcfl_W_hf_max              =   4.5758742770377E-03
(PID.TID 0000.0001) %MON pe_b_mean                    =  -8.3011858736500E-01
(PID.TID 0000.0001) %MON ke_max                       =   1.9008901907600E-04
(PID.TID 0000.0001) %MON ke_mean                      =   3.1696755912997E-07
(PID.TID 0000.0001) %MON ke_vol                       =   4.2724804637987E+12
(PID.TID 0000.0001) // =======================================================
(PID.TID 0000.0001) // End MONITOR dynamic field statistics
(PID.TID 0000.0001) // =======================================================
(PID.TID 0000.0001) // =======================================================
(PID.TID 0000.0001) // Begin OBCS MONITOR field statistics
(PID.TID 0000.0001) // =======================================================
(PID.TID 0000.0001) %MON obc_N_vVel_max               =   1.5366443291320E-05
(PID.TID 0000.0001) %MON obc_N_vVel_min               =   1.5366443291320E-05
(PID.TID 0000.0001) %MON obc_N_vVel_mean              =   1.5366443291320E-05
(PID.TID 0000.0001) %MON obc_N_vVel_sd                =   3.6943849430081E-12
(PID.TID 0000.0001) %MON obc_N_vVel_Int               =   1.0141852572271E+03
(PID.TID 0000.0001) // =======================================================
(PID.TID 0000.0001) // End OBCS MONITOR field statistics
(PID.TID 0000.0001) // =======================================================
 cg2d: Sum(rhs),rhsMax =   4.50997249224874E+00  2.99934424284029E+02
(PID.TID 0000.0001)      cg2d_init_res =   7.49195953593751E-06
(PID.TID 0000.0001)      cg2d_iters(min,last) =      -1      82
(PID.TID 0000.0001)      cg2d_last_res =   8.76464796245285E-12
(PID.TID 0000.0001) // =======================================================
(PID.TID 0000.0001) // Begin MONITOR dynamic field statistics
(PID.TID 0000.0001) // =======================================================
(PID.TID 0000.0001) %MON time_tsnumber                =                  1053
(PID.TID 0000.0001) %MON time_secondsf                =   1.0530000000000E+05
(PID.TID 0000.0001) %MON dynstat_eta_max              =   5.7991671412903E+00
(PID.TID 0000.0001) %MON dynstat_eta_min              =  -1.4198065102628E+01
(PID.TID 0000.0001) %MON dynstat_eta_mean             =  -2.5049925981471E+00
(PID.TID 0000.0001) %MON dynstat_eta_sd               =   4.9502774366653E+00
(PID.TID 0000.0001) %MON dynstat_eta_del2             =   2.0715152556125E-01
(PID.TID 0000.0001) %MON dynstat_uvel_max             =   5.2101306792345E-03
(PID.TID 0000.0001) %MON dynstat_uvel_min             =  -2.3172466150790E-02
(PID.TID 0000.0001) %MON dynstat_uvel_mean            =  -1.1262804433870E-07
(PID.TID 0000.0001) %MON dynstat_uvel_sd              =   6.8581090203035E-04
(PID.TID 0000.0001) %MON dynstat_uvel_del2            =   1.0091264988101E-06
(PID.TID 0000.0001) %MON dynstat_vvel_max             =   1.8344866533944E-02
(PID.TID 0000.0001) %MON dynstat_vvel_min             =  -7.4739677367512E-03
(PID.TID 0000.0001) %MON dynstat_vvel_mean            =   1.5696445143953E-05
(PID.TID 0000.0001) %MON dynstat_vvel_sd              =   4.1907873490533E-04
(PID.TID 0000.0001) %MON dynstat_vvel_del2            =   8.4064236845640E-07
(PID.TID 0000.0001) %MON dynstat_wvel_max             =   9.1756927873501E-04
(PID.TID 0000.0001) %MON dynstat_wvel_min             =  -8.9129774613665E-04
(PID.TID 0000.0001) %MON dynstat_wvel_mean            =   7.6089091214178E-09
(PID.TID 0000.0001) %MON dynstat_wvel_sd              =   1.7963580822291E-05
(PID.TID 0000.0001) %MON dynstat_wvel_del2            =   8.0402016523899E-08
(PID.TID 0000.0001) %MON dynstat_theta_max            =   1.2000000000000E+00
(PID.TID 0000.0001) %MON dynstat_theta_min            =  -1.0000000000000E+00
(PID.TID 0000.0001) %MON dynstat_theta_mean           =   5.6873823092018E-01
(PID.TID 0000.0001) %MON dynstat_theta_sd             =   8.6838660497953E-01
(PID.TID 0000.0001) %MON dynstat_theta_del2           =   2.6963697516722E-06
(PID.TID 0000.0001) %MON dynstat_salt_max             =   3.4700000000000E+01
(PID.TID 0000.0001) %MON dynstat_salt_min             =   3.4000000000000E+01
(PID.TID 0000.0001) %MON dynstat_salt_mean            =   3.4499109466565E+01
(PID.TID 0000.0001) %MON dynstat_salt_sd              =   2.7629202654385E-01
(PID.TID 0000.0001) %MON dynstat_salt_del2            =   1.0604938657840E-06
(PID.TID 0000.0001) %MON advcfl_uvel_max              =   2.3172466150790E-03
(PID.TID 0000.0001) %MON advcfl_vvel_max              =   1.8344866533944E-03
(PID.TID 0000.0001) %MON advcfl_wvel_max              =   4.5878463936751E-03
(PID.TID 0000.0001) %MON advcfl_W_hf_max              =   4.5878463936751E-03
(PID.TID 0000.0001) %MON pe_b_mean                    =  -8.3012118532905E-01
(PID.TID 0000.0001) %MON ke_max                       =   1.9116832489879E-04
(PID.TID 0000.0001) %MON ke_mean                      =   3.1843730177513E-07
(PID.TID 0000.0001) %MON ke_vol                       =   4.2724804038602E+12
(PID.TID 0000.0001) // =======================================================
(PID.TID 0000.0001) // End MONITOR dynamic field statistics
(PID.TID 0000.0001) // =======================================================
(PID.TID 0000.0001) // =======================================================
(PID.TID 0000.0001) // Begin OBCS MONITOR field statistics
(PID.TID 0000.0001) // =======================================================
(PID.TID 0000.0001) %MON obc_N_vVel_max               =   1.5371487962414E-05
(PID.TID 0000.0001) %MON obc_N_vVel_min               =   1.5371487962414E-05
(PID.TID 0000.0001) %MON obc_N_vVel_mean              =   1.5371487962414E-05
(PID.TID 0000.0001) %MON obc_N_vVel_sd                =  -1.8094575899597E-23
(PID.TID 0000.0001) %MON obc_N_vVel_Int               =   1.0145182055193E+03
(PID.TID 0000.0001) // =======================================================
(PID.TID 0000.0001) // End OBCS MONITOR field statistics
(PID.TID 0000.0001) // =======================================================
 cg2d: Sum(rhs),rhsMax =   4.50998915947130E+00  2.99934521439922E+02
(PID.TID 0000.0001)      cg2d_init_res =   7.47329801584915E-06
(PID.TID 0000.0001)      cg2d_iters(min,last) =      -1      82
(PID.TID 0000.0001)      cg2d_last_res =   8.82627107334954E-12
(PID.TID 0000.0001) // =======================================================
(PID.TID 0000.0001) // Begin MONITOR dynamic field statistics
(PID.TID 0000.0001) // =======================================================
(PID.TID 0000.0001) %MON time_tsnumber                =                  1054
(PID.TID 0000.0001) %MON time_secondsf                =   1.0540000000000E+05
(PID.TID 0000.0001) %MON dynstat_eta_max              =   5.7991452041328E+00
(PID.TID 0000.0001) %MON dynstat_eta_min              =  -1.4198082304162E+01
(PID.TID 0000.0001) %MON dynstat_eta_mean             =  -2.5050026671209E+00
(PID.TID 0000.0001) %MON dynstat_eta_sd               =   4.9502810404114E+00
(PID.TID 0000.0001) %MON dynstat_eta_del2             =   2.0715155551666E-01
(PID.TID 0000.0001) %MON dynstat_uvel_max             =   5.2230776335733E-03
(PID.TID 0000.0001) %MON dynstat_uvel_min             =  -2.3235081284818E-02
(PID.TID 0000.0001) %MON dynstat_uvel_mean            =  -1.1471549049180E-07
(PID.TID 0000.0001) %MON dynstat_uvel_sd              =   6.8751112802078E-04
(PID.TID 0000.0001) %MON dynstat_uvel_del2            =   1.0114885548748E-06
(PID.TID 0000.0001) %MON dynstat_vvel_max             =   1.8388200088546E-02
(PID.TID 0000.0001) %MON dynstat_vvel_min             =  -7.4867749929020E-03
(PID.TID 0000.0001) %MON dynstat_vvel_mean            =   1.5691227483255E-05
(PID.TID 0000.0001) %MON dynstat_vvel_sd              =   4.1986695794924E-04
(PID.TID 0000.0001) %MON dynstat_vvel_del2            =   8.4185258102698E-07
(PID.TID 0000.0001) %MON dynstat_wvel_max             =   9.1996762330797E-04
(PID.TID 0000.0001) %MON dynstat_wvel_min             =  -8.9355597502403E-04
(PID.TID 0000.0001) %MON dynstat_wvel_mean            =   7.5492990203784E-09
(PID.TID 0000.0001) %MON dynstat_wvel_sd              =   1.7814983340541E-05
(PID.TID 0000.0001) %MON dynstat_wvel_del2            =   7.9635287025912E-08
(PID.TID 0000.0001) %MON dynstat_theta_max            =   1.2000000000000E+00
(PID.TID 0000.0001) %MON dynstat_theta_min            =  -1.0000000000000E+00
(PID.TID 0000.0001) %MON dynstat_theta_mean           =   5.6873739467689E-01
(PID.TID 0000.0001) %MON dynstat_theta_sd             =   8.6838615307190E-01
(PID.TID 0000.0001) %MON dynstat_theta_del2           =   2.7019665710660E-06
(PID.TID 0000.0001) %MON dynstat_salt_max             =   3.4700000000000E+01
(PID.TID 0000.0001) %MON dynstat_salt_min             =   3.4000000000000E+01
(PID.TID 0000.0001) %MON dynstat_salt_mean            =   3.4499109131973E+01
(PID.TID 0000.0001) %MON dynstat_salt_sd              =   2.7629185269023E-01
(PID.TID 0000.0001) %MON dynstat_salt_del2            =   1.0627125677118E-06
(PID.TID 0000.0001) %MON advcfl_uvel_max              =   2.3235081284818E-03
(PID.TID 0000.0001) %MON advcfl_vvel_max              =   1.8388200088546E-03
(PID.TID 0000.0001) %MON advcfl_wvel_max              =   4.5998381165398E-03
(PID.TID 0000.0001) %MON advcfl_W_hf_max              =   4.5998381165398E-03
(PID.TID 0000.0001) %MON pe_b_mean                    =  -8.3012377674002E-01
(PID.TID 0000.0001) %MON ke_max                       =   1.9225291507450E-04
(PID.TID 0000.0001) %MON ke_mean                      =   3.1991217874386E-07
(PID.TID 0000.0001) %MON ke_vol                       =   4.2724803439670E+12
(PID.TID 0000.0001) // =======================================================
(PID.TID 0000.0001) // End MONITOR dynamic field statistics
(PID.TID 0000.0001) // =======================================================
(PID.TID 0000.0001) // =======================================================
(PID.TID 0000.0001) // Begin OBCS MONITOR field statistics
(PID.TID 0000.0001) // =======================================================
(PID.TID 0000.0001) %MON obc_N_vVel_max               =   1.5370777909991E-05
(PID.TID 0000.0001) %MON obc_N_vVel_min               =   1.5370777909990E-05
(PID.TID 0000.0001) %MON obc_N_vVel_mean              =   1.5370777909990E-05
(PID.TID 0000.0001) %MON obc_N_vVel_sd                =   4.2416009151060E-12
(PID.TID 0000.0001) %MON obc_N_vVel_Int               =   1.0144713420594E+03
(PID.TID 0000.0001) // =======================================================
(PID.TID 0000.0001) // End OBCS MONITOR field statistics
(PID.TID 0000.0001) // =======================================================
 cg2d: Sum(rhs),rhsMax =   4.51000580768117E+00  2.99934617428809E+02
(PID.TID 0000.0001)      cg2d_init_res =   7.45026124762159E-06
(PID.TID 0000.0001)      cg2d_iters(min,last) =      -1      82
(PID.TID 0000.0001)      cg2d_last_res =   8.91997797015781E-12
(PID.TID 0000.0001) // =======================================================
(PID.TID 0000.0001) // Begin MONITOR dynamic field statistics
(PID.TID 0000.0001) // =======================================================
(PID.TID 0000.0001) %MON time_tsnumber                =                  1055
(PID.TID 0000.0001) %MON time_secondsf                =   1.0550000000000E+05
(PID.TID 0000.0001) %MON dynstat_eta_max              =   5.7991233103813E+00
(PID.TID 0000.0001) %MON dynstat_eta_min              =  -1.4198099487428E+01
(PID.TID 0000.0001) %MON dynstat_eta_mean             =  -2.5050127157936E+00
(PID.TID 0000.0001) %MON dynstat_eta_sd               =   4.9502846335121E+00
(PID.TID 0000.0001) %MON dynstat_eta_del2             =   2.0715158551992E-01
(PID.TID 0000.0001) %MON dynstat_uvel_max             =   5.2360490684151E-03
(PID.TID 0000.0001) %MON dynstat_uvel_min             =  -2.3297810128511E-02
(PID.TID 0000.0001) %MON dynstat_uvel_mean            =  -1.1664180052946E-07
(PID.TID 0000.0001) %MON dynstat_uvel_sd              =   6.8921459157582E-04
(PID.TID 0000.0001) %MON dynstat_uvel_del2            =   1.0138574712189E-06
(PID.TID 0000.0001) %MON dynstat_vvel_max             =   1.8431586232946E-02
(PID.TID 0000.0001) %MON dynstat_vvel_min             =  -7.4995954495156E-03
(PID.TID 0000.0001) %MON dynstat_vvel_mean            =   1.5679796976493E-05
(PID.TID 0000.0001) %MON dynstat_vvel_sd              =   4.2065632770233E-04
(PID.TID 0000.0001) %MON dynstat_vvel_del2            =   8.4304685840608E-07
(PID.TID 0000.0001) %MON dynstat_wvel_max             =   9.2236990782244E-04
(PID.TID 0000.0001) %MON dynstat_wvel_min             =  -8.9581794687938E-04
(PID.TID 0000.0001) %MON dynstat_wvel_mean            =   7.4849008784521E-09
(PID.TID 0000.0001) %MON dynstat_wvel_sd              =   1.7667536686795E-05
(PID.TID 0000.0001) %MON dynstat_wvel_del2            =   7.8823126599770E-08
(PID.TID 0000.0001) %MON dynstat_theta_max            =   1.2000000000000E+00
(PID.TID 0000.0001) %MON dynstat_theta_min            =  -1.0000000000000E+00
(PID.TID 0000.0001) %MON dynstat_theta_mean           =   5.6873655685695E-01
(PID.TID 0000.0001) %MON dynstat_theta_sd             =   8.6838570035151E-01
(PID.TID 0000.0001) %MON dynstat_theta_del2           =   2.7076051736504E-06
(PID.TID 0000.0001) %MON dynstat_salt_max             =   3.4700000000000E+01
(PID.TID 0000.0001) %MON dynstat_salt_min             =   3.4000000000000E+01
(PID.TID 0000.0001) %MON dynstat_salt_mean            =   3.4499108796750E+01
(PID.TID 0000.0001) %MON dynstat_salt_sd              =   2.7629167851846E-01
(PID.TID 0000.0001) %MON dynstat_salt_del2            =   1.0649445021947E-06
(PID.TID 0000.0001) %MON advcfl_uvel_max              =   2.3297810128511E-03
(PID.TID 0000.0001) %MON advcfl_vvel_max              =   1.8431586232946E-03
(PID.TID 0000.0001) %MON advcfl_wvel_max              =   4.6118495391122E-03
(PID.TID 0000.0001) %MON advcfl_W_hf_max              =   4.6118495391122E-03
(PID.TID 0000.0001) %MON pe_b_mean                    =  -8.3012636005900E-01
(PID.TID 0000.0001) %MON ke_max                       =   1.9334282550097E-04
(PID.TID 0000.0001) %MON ke_mean                      =   3.2139308319746E-07
(PID.TID 0000.0001) %MON ke_vol                       =   4.2724802841573E+12
(PID.TID 0000.0001) // =======================================================
(PID.TID 0000.0001) // End MONITOR dynamic field statistics
(PID.TID 0000.0001) // =======================================================
(PID.TID 0000.0001) // =======================================================
(PID.TID 0000.0001) // Begin OBCS MONITOR field statistics
(PID.TID 0000.0001) // =======================================================
(PID.TID 0000.0001) %MON obc_N_vVel_max               =   1.5364448497909E-05
(PID.TID 0000.0001) %MON obc_N_vVel_min               =   1.5364448497908E-05
(PID.TID 0000.0001) %MON obc_N_vVel_mean              =   1.5364448497908E-05
(PID.TID 0000.0001) %MON obc_N_vVel_sd                =   3.9118846266513E-12
(PID.TID 0000.0001) %MON obc_N_vVel_Int               =   1.0140536008620E+03
(PID.TID 0000.0001) // =======================================================
(PID.TID 0000.0001) // End OBCS MONITOR field statistics
(PID.TID 0000.0001) // =======================================================
 cg2d: Sum(rhs),rhsMax =   4.51002242828718E+00  2.99934712080303E+02
(PID.TID 0000.0001)      cg2d_init_res =   7.42329837931701E-06
(PID.TID 0000.0001)      cg2d_iters(min,last) =      -1      82
(PID.TID 0000.0001)      cg2d_last_res =   9.01206251634932E-12
(PID.TID 0000.0001) // =======================================================
(PID.TID 0000.0001) // Begin MONITOR dynamic field statistics
(PID.TID 0000.0001) // =======================================================
(PID.TID 0000.0001) %MON time_tsnumber                =                  1056
(PID.TID 0000.0001) %MON time_secondsf                =   1.0560000000000E+05
(PID.TID 0000.0001) %MON dynstat_eta_max              =   5.7991014643603E+00
(PID.TID 0000.0001) %MON dynstat_eta_min              =  -1.4198116635985E+01
(PID.TID 0000.0001) %MON dynstat_eta_mean             =  -2.5050227379704E+00
(PID.TID 0000.0001) %MON dynstat_eta_sd               =   4.9502882139256E+00
(PID.TID 0000.0001) %MON dynstat_eta_del2             =   2.0715161556899E-01
(PID.TID 0000.0001) %MON dynstat_uvel_max             =   5.2490455407828E-03
(PID.TID 0000.0001) %MON dynstat_uvel_min             =  -2.3360652655085E-02
(PID.TID 0000.0001) %MON dynstat_uvel_mean            =  -1.1808746729177E-07
(PID.TID 0000.0001) %MON dynstat_uvel_sd              =   6.9092129716277E-04
(PID.TID 0000.0001) %MON dynstat_uvel_del2            =   1.0162331514949E-06
(PID.TID 0000.0001) %MON dynstat_vvel_max             =   1.8475023962345E-02
(PID.TID 0000.0001) %MON dynstat_vvel_min             =  -7.5124296487150E-03
(PID.TID 0000.0001) %MON dynstat_vvel_mean            =   1.5662385863209E-05
(PID.TID 0000.0001) %MON dynstat_vvel_sd              =   4.2144886625470E-04
(PID.TID 0000.0001) %MON dynstat_vvel_del2            =   8.4424188582644E-07
(PID.TID 0000.0001) %MON dynstat_wvel_max             =   9.2477616057689E-04
(PID.TID 0000.0001) %MON dynstat_wvel_min             =  -8.9808361107741E-04
(PID.TID 0000.0001) %MON dynstat_wvel_mean            =   7.4167004798368E-09
(PID.TID 0000.0001) %MON dynstat_wvel_sd              =   1.7528659760184E-05
(PID.TID 0000.0001) %MON dynstat_wvel_del2            =   7.8000839112943E-08
(PID.TID 0000.0001) %MON dynstat_theta_max            =   1.2000000000000E+00
(PID.TID 0000.0001) %MON dynstat_theta_min            =  -1.0000000000000E+00
(PID.TID 0000.0001) %MON dynstat_theta_mean           =   5.6873571745538E-01
(PID.TID 0000.0001) %MON dynstat_theta_sd             =   8.6838524681458E-01
(PID.TID 0000.0001) %MON dynstat_theta_del2           =   2.7132673005576E-06
(PID.TID 0000.0001) %MON dynstat_salt_max             =   3.4700000000000E+01
(PID.TID 0000.0001) %MON dynstat_salt_min             =   3.4000000000000E+01
(PID.TID 0000.0001) %MON dynstat_salt_mean            =   3.4499108460893E+01
(PID.TID 0000.0001) %MON dynstat_salt_sd              =   2.7629150402745E-01
(PID.TID 0000.0001) %MON dynstat_salt_del2            =   1.0671850798810E-06
(PID.TID 0000.0001) %MON advcfl_uvel_max              =   2.3360652655085E-03
(PID.TID 0000.0001) %MON advcfl_vvel_max              =   1.8475023962345E-03
(PID.TID 0000.0001) %MON advcfl_wvel_max              =   4.6238808028844E-03
(PID.TID 0000.0001) %MON advcfl_W_hf_max              =   4.6238808028844E-03
(PID.TID 0000.0001) %MON pe_b_mean                    =  -8.3012893378898E-01
(PID.TID 0000.0001) %MON ke_max                       =   1.9443807745813E-04
(PID.TID 0000.0001) %MON ke_mean                      =   3.2288089303013E-07
(PID.TID 0000.0001) %MON ke_vol                       =   4.2724802244682E+12
(PID.TID 0000.0001) // =======================================================
(PID.TID 0000.0001) // End MONITOR dynamic field statistics
(PID.TID 0000.0001) // =======================================================
(PID.TID 0000.0001) // =======================================================
(PID.TID 0000.0001) // Begin OBCS MONITOR field statistics
(PID.TID 0000.0001) // =======================================================
(PID.TID 0000.0001) %MON obc_N_vVel_max               =   1.5352551625347E-05
(PID.TID 0000.0001) %MON obc_N_vVel_min               =   1.5352551625346E-05
(PID.TID 0000.0001) %MON obc_N_vVel_mean              =   1.5352551625347E-05
(PID.TID 0000.0001) %MON obc_N_vVel_sd                =   1.6396148910026E-12
(PID.TID 0000.0001) %MON obc_N_vVel_Int               =   1.0132684072729E+03
(PID.TID 0000.0001) // =======================================================
(PID.TID 0000.0001) // End OBCS MONITOR field statistics
(PID.TID 0000.0001) // =======================================================
 cg2d: Sum(rhs),rhsMax =   4.51003901272006E+00  2.99934805234640E+02
(PID.TID 0000.0001)      cg2d_init_res =   7.39290899969516E-06
(PID.TID 0000.0001)      cg2d_iters(min,last) =      -1      82
(PID.TID 0000.0001)      cg2d_last_res =   9.07767112201517E-12
(PID.TID 0000.0001) // =======================================================
(PID.TID 0000.0001) // Begin MONITOR dynamic field statistics
(PID.TID 0000.0001) // =======================================================
(PID.TID 0000.0001) %MON time_tsnumber                =                  1057
(PID.TID 0000.0001) %MON time_secondsf                =   1.0570000000000E+05
(PID.TID 0000.0001) %MON dynstat_eta_max              =   5.7990796698424E+00
(PID.TID 0000.0001) %MON dynstat_eta_min              =  -1.4198133731935E+01
(PID.TID 0000.0001) %MON dynstat_eta_mean             =  -2.5050327275571E+00
(PID.TID 0000.0001) %MON dynstat_eta_sd               =   4.9502917796802E+00
(PID.TID 0000.0001) %MON dynstat_eta_del2             =   2.0715164566221E-01
(PID.TID 0000.0001) %MON dynstat_uvel_max             =   5.2620673313193E-03
(PID.TID 0000.0001) %MON dynstat_uvel_min             =  -2.3423608587821E-02
(PID.TID 0000.0001) %MON dynstat_uvel_mean            =  -1.1884367999962E-07
(PID.TID 0000.0001) %MON dynstat_uvel_sd              =   6.9263125018465E-04
(PID.TID 0000.0001) %MON dynstat_uvel_del2            =   1.0186155015867E-06
(PID.TID 0000.0001) %MON dynstat_vvel_max             =   1.8518512468725E-02
(PID.TID 0000.0001) %MON dynstat_vvel_min             =  -7.5252775973667E-03
(PID.TID 0000.0001) %MON dynstat_vvel_mean            =   1.5639227604619E-05
(PID.TID 0000.0001) %MON dynstat_vvel_sd              =   4.2224645533039E-04
(PID.TID 0000.0001) %MON dynstat_vvel_del2            =   8.4545360146280E-07
(PID.TID 0000.0001) %MON dynstat_wvel_max             =   9.2718640573685E-04
(PID.TID 0000.0001) %MON dynstat_wvel_min             =  -9.0035296193940E-04
(PID.TID 0000.0001) %MON dynstat_wvel_mean            =   7.3459376706935E-09
(PID.TID 0000.0001) %MON dynstat_wvel_sd              =   1.7405414989799E-05
(PID.TID 0000.0001) %MON dynstat_wvel_del2            =   7.7203406817021E-08
(PID.TID 0000.0001) %MON dynstat_theta_max            =   1.2000000000000E+00
(PID.TID 0000.0001) %MON dynstat_theta_min            =  -1.0000000000000E+00
(PID.TID 0000.0001) %MON dynstat_theta_mean           =   5.6873487646732E-01
(PID.TID 0000.0001) %MON dynstat_theta_sd             =   8.6838479246215E-01
(PID.TID 0000.0001) %MON dynstat_theta_del2           =   2.7189354006932E-06
(PID.TID 0000.0001) %MON dynstat_salt_max             =   3.4700000000000E+01
(PID.TID 0000.0001) %MON dynstat_salt_min             =   3.4000000000000E+01
(PID.TID 0000.0001) %MON dynstat_salt_mean            =   3.4499108124400E+01
(PID.TID 0000.0001) %MON dynstat_salt_sd              =   2.7629132921717E-01
(PID.TID 0000.0001) %MON dynstat_salt_del2            =   1.0694298852161E-06
(PID.TID 0000.0001) %MON advcfl_uvel_max              =   2.3423608587821E-03
(PID.TID 0000.0001) %MON advcfl_vvel_max              =   1.8518512468725E-03
(PID.TID 0000.0001) %MON advcfl_wvel_max              =   4.6359320286843E-03
(PID.TID 0000.0001) %MON advcfl_W_hf_max              =   4.6359320286843E-03
(PID.TID 0000.0001) %MON pe_b_mean                    =  -8.3013149649208E-01
(PID.TID 0000.0001) %MON ke_max                       =   1.9553868702565E-04
(PID.TID 0000.0001) %MON ke_mean                      =   3.2437643411897E-07
(PID.TID 0000.0001) %MON ke_vol                       =   4.2724801649365E+12
(PID.TID 0000.0001) // =======================================================
(PID.TID 0000.0001) // End MONITOR dynamic field statistics
(PID.TID 0000.0001) // =======================================================
(PID.TID 0000.0001) // =======================================================
(PID.TID 0000.0001) // Begin OBCS MONITOR field statistics
(PID.TID 0000.0001) // =======================================================
(PID.TID 0000.0001) %MON obc_N_vVel_max               =   1.5335175620359E-05
(PID.TID 0000.0001) %MON obc_N_vVel_min               =   1.5335175620358E-05
(PID.TID 0000.0001) %MON obc_N_vVel_mean              =   1.5335175620359E-05
(PID.TID 0000.0001) %MON obc_N_vVel_sd                =  -6.1004570175786E-24
(PID.TID 0000.0001) %MON obc_N_vVel_Int               =   1.0121215909437E+03
(PID.TID 0000.0001) // =======================================================
(PID.TID 0000.0001) // End OBCS MONITOR field statistics
(PID.TID 0000.0001) // =======================================================
 cg2d: Sum(rhs),rhsMax =   4.51005555261291E+00  2.99934896745864E+02
(PID.TID 0000.0001)      cg2d_init_res =   7.35960397162259E-06
(PID.TID 0000.0001)      cg2d_iters(min,last) =      -1      82
(PID.TID 0000.0001)      cg2d_last_res =   9.10571164342562E-12
(PID.TID 0000.0001) // =======================================================
(PID.TID 0000.0001) // Begin MONITOR dynamic field statistics
(PID.TID 0000.0001) // =======================================================
(PID.TID 0000.0001) %MON time_tsnumber                =                  1058
(PID.TID 0000.0001) %MON time_secondsf                =   1.0580000000000E+05
(PID.TID 0000.0001) %MON dynstat_eta_max              =   5.7990579318773E+00
(PID.TID 0000.0001) %MON dynstat_eta_min              =  -1.4198150757219E+01
(PID.TID 0000.0001) %MON dynstat_eta_mean             =  -2.5050426786872E+00
(PID.TID 0000.0001) %MON dynstat_eta_sd               =   4.9502953289936E+00
(PID.TID 0000.0001) %MON dynstat_eta_del2             =   2.0715167579803E-01
(PID.TID 0000.0001) %MON dynstat_uvel_max             =   5.2751145625933E-03
(PID.TID 0000.0001) %MON dynstat_uvel_min             =  -2.3486677641801E-02
(PID.TID 0000.0001) %MON dynstat_uvel_mean            =  -1.1883446334616E-07
(PID.TID 0000.0001) %MON dynstat_uvel_sd              =   6.9434445454797E-04
(PID.TID 0000.0001) %MON dynstat_uvel_del2            =   1.0210044309659E-06
(PID.TID 0000.0001) %MON dynstat_vvel_max             =   1.8562051356612E-02
(PID.TID 0000.0001) %MON dynstat_vvel_min             =  -7.5381391399221E-03
(PID.TID 0000.0001) %MON dynstat_vvel_mean            =   1.5610574300363E-05
(PID.TID 0000.0001) %MON dynstat_vvel_sd              =   4.2305076275215E-04
(PID.TID 0000.0001) %MON dynstat_vvel_del2            =   8.4669657504513E-07
(PID.TID 0000.0001) %MON dynstat_wvel_max             =   9.2960065310957E-04
(PID.TID 0000.0001) %MON dynstat_wvel_min             =  -9.0262601002173E-04
(PID.TID 0000.0001) %MON dynstat_wvel_mean            =   7.2734823056498E-09
(PID.TID 0000.0001) %MON dynstat_wvel_sd              =   1.7304135281940E-05
(PID.TID 0000.0001) %MON dynstat_wvel_del2            =   7.6463833259149E-08
(PID.TID 0000.0001) %MON dynstat_theta_max            =   1.2000000000000E+00
(PID.TID 0000.0001) %MON dynstat_theta_min            =  -1.0000000000000E+00
(PID.TID 0000.0001) %MON dynstat_theta_mean           =   5.6873403388788E-01
(PID.TID 0000.0001) %MON dynstat_theta_sd             =   8.6838433729226E-01
(PID.TID 0000.0001) %MON dynstat_theta_del2           =   2.7245933485654E-06
(PID.TID 0000.0001) %MON dynstat_salt_max             =   3.4700000000000E+01
(PID.TID 0000.0001) %MON dynstat_salt_min             =   3.4000000000000E+01
(PID.TID 0000.0001) %MON dynstat_salt_mean            =   3.4499107787270E+01
(PID.TID 0000.0001) %MON dynstat_salt_sd              =   2.7629115408730E-01
(PID.TID 0000.0001) %MON dynstat_salt_del2            =   1.0716748499106E-06
(PID.TID 0000.0001) %MON advcfl_uvel_max              =   2.3486677641801E-03
(PID.TID 0000.0001) %MON advcfl_vvel_max              =   1.8562051356612E-03
(PID.TID 0000.0001) %MON advcfl_wvel_max              =   4.6480032655478E-03
(PID.TID 0000.0001) %MON advcfl_W_hf_max              =   4.6480032655478E-03
(PID.TID 0000.0001) %MON pe_b_mean                    =  -8.3013404680622E-01
(PID.TID 0000.0001) %MON ke_max                       =   1.9664466966187E-04
(PID.TID 0000.0001) %MON ke_mean                      =   3.2588044734287E-07
(PID.TID 0000.0001) %MON ke_vol                       =   4.2724801055983E+12
(PID.TID 0000.0001) // =======================================================
(PID.TID 0000.0001) // End MONITOR dynamic field statistics
(PID.TID 0000.0001) // =======================================================
(PID.TID 0000.0001) // =======================================================
(PID.TID 0000.0001) // Begin OBCS MONITOR field statistics
(PID.TID 0000.0001) // =======================================================
(PID.TID 0000.0001) %MON obc_N_vVel_max               =   1.5312525163274E-05
(PID.TID 0000.0001) %MON obc_N_vVel_min               =   1.5312525163274E-05
(PID.TID 0000.0001) %MON obc_N_vVel_mean              =   1.5312525163274E-05
(PID.TID 0000.0001) %MON obc_N_vVel_sd                =   4.0226509583941E-12
(PID.TID 0000.0001) %MON obc_N_vVel_Int               =   1.0106266607761E+03
(PID.TID 0000.0001) // =======================================================
(PID.TID 0000.0001) // End OBCS MONITOR field statistics
(PID.TID 0000.0001) // =======================================================
 cg2d: Sum(rhs),rhsMax =   4.51007203998933E+00  2.99934986483968E+02
(PID.TID 0000.0001)      cg2d_init_res =   7.32390479479026E-06
(PID.TID 0000.0001)      cg2d_iters(min,last) =      -1      82
(PID.TID 0000.0001)      cg2d_last_res =   9.09709005890429E-12
(PID.TID 0000.0001) // =======================================================
(PID.TID 0000.0001) // Begin MONITOR dynamic field statistics
(PID.TID 0000.0001) // =======================================================
(PID.TID 0000.0001) %MON time_tsnumber                =                  1059
(PID.TID 0000.0001) %MON time_secondsf                =   1.0590000000000E+05
(PID.TID 0000.0001) %MON dynstat_eta_max              =   5.7990362563559E+00
(PID.TID 0000.0001) %MON dynstat_eta_min              =  -1.4198167695048E+01
(PID.TID 0000.0001) %MON dynstat_eta_mean             =  -2.5050525858443E+00
(PID.TID 0000.0001) %MON dynstat_eta_sd               =   4.9502988603163E+00
(PID.TID 0000.0001) %MON dynstat_eta_del2             =   2.0715170597503E-01
(PID.TID 0000.0001) %MON dynstat_uvel_max             =   5.2881873035560E-03
(PID.TID 0000.0001) %MON dynstat_uvel_min             =  -2.3549859588324E-02
(PID.TID 0000.0001) %MON dynstat_uvel_mean            =  -1.1810776272298E-07
(PID.TID 0000.0001) %MON dynstat_uvel_sd              =   6.9606091279722E-04
(PID.TID 0000.0001) %MON dynstat_uvel_del2            =   1.0233998540106E-06
(PID.TID 0000.0001) %MON dynstat_vvel_max             =   1.8605640650075E-02
(PID.TID 0000.0001) %MON dynstat_vvel_min             =  -7.5510141001320E-03
(PID.TID 0000.0001) %MON dynstat_vvel_mean            =   1.5576727261700E-05
(PID.TID 0000.0001) %MON dynstat_vvel_sd              =   4.2386317648597E-04
(PID.TID 0000.0001) %MON dynstat_vvel_del2            =   8.4798348996551E-07
(PID.TID 0000.0001) %MON dynstat_wvel_max             =   9.3201889548792E-04
(PID.TID 0000.0001) %MON dynstat_wvel_min             =  -9.0490276953317E-04
(PID.TID 0000.0001) %MON dynstat_wvel_mean            =   7.1996443779449E-09
(PID.TID 0000.0001) %MON dynstat_wvel_sd              =   1.7230073209344E-05
(PID.TID 0000.0001) %MON dynstat_wvel_del2            =   7.5811571419361E-08
(PID.TID 0000.0001) %MON dynstat_theta_max            =   1.2000000000000E+00
(PID.TID 0000.0001) %MON dynstat_theta_min            =  -1.0000000000000E+00
(PID.TID 0000.0001) %MON dynstat_theta_mean           =   5.6873318971215E-01
(PID.TID 0000.0001) %MON dynstat_theta_sd             =   8.6838388130079E-01
(PID.TID 0000.0001) %MON dynstat_theta_del2           =   2.7302270000717E-06
(PID.TID 0000.0001) %MON dynstat_salt_max             =   3.4700000000000E+01
(PID.TID 0000.0001) %MON dynstat_salt_min             =   3.4000000000000E+01
(PID.TID 0000.0001) %MON dynstat_salt_mean            =   3.4499107449501E+01
(PID.TID 0000.0001) %MON dynstat_salt_sd              =   2.7629097863638E-01
(PID.TID 0000.0001) %MON dynstat_salt_del2            =   1.0739164125036E-06
(PID.TID 0000.0001) %MON advcfl_uvel_max              =   2.3549859588324E-03
(PID.TID 0000.0001) %MON advcfl_vvel_max              =   1.8605640650075E-03
(PID.TID 0000.0001) %MON advcfl_wvel_max              =   4.6600944774396E-03
(PID.TID 0000.0001) %MON advcfl_W_hf_max              =   4.6600944774396E-03
(PID.TID 0000.0001) %MON pe_b_mean                    =  -8.3013658345576E-01
(PID.TID 0000.0001) %MON ke_max                       =   1.9775604160934E-04
(PID.TID 0000.0001) %MON ke_mean                      =   3.2739356041229E-07
(PID.TID 0000.0001) %MON ke_vol                       =   4.2724800464886E+12
(PID.TID 0000.0001) // =======================================================
(PID.TID 0000.0001) // End MONITOR dynamic field statistics
(PID.TID 0000.0001) // =======================================================
(PID.TID 0000.0001) // =======================================================
(PID.TID 0000.0001) // Begin OBCS MONITOR field statistics
(PID.TID 0000.0001) // =======================================================
(PID.TID 0000.0001) %MON obc_N_vVel_max               =   1.5284915213085E-05
(PID.TID 0000.0001) %MON obc_N_vVel_min               =   1.5284915213084E-05
(PID.TID 0000.0001) %MON obc_N_vVel_mean              =   1.5284915213084E-05
(PID.TID 0000.0001) %MON obc_N_vVel_sd                =   4.8447136015653E-12
(PID.TID 0000.0001) %MON obc_N_vVel_Int               =   1.0088044040636E+03
(PID.TID 0000.0001) // =======================================================
(PID.TID 0000.0001) // End OBCS MONITOR field statistics
(PID.TID 0000.0001) // =======================================================
 cg2d: Sum(rhs),rhsMax =   4.51008846736987E+00  2.99935074336093E+02
(PID.TID 0000.0001)      cg2d_init_res =   7.28632693645529E-06
(PID.TID 0000.0001)      cg2d_iters(min,last) =      -1      82
(PID.TID 0000.0001)      cg2d_last_res =   9.06047192171993E-12
(PID.TID 0000.0001) // =======================================================
(PID.TID 0000.0001) // Begin MONITOR dynamic field statistics
(PID.TID 0000.0001) // =======================================================
(PID.TID 0000.0001) %MON time_tsnumber                =                  1060
(PID.TID 0000.0001) %MON time_secondsf                =   1.0600000000000E+05
(PID.TID 0000.0001) %MON dynstat_eta_max              =   5.7990146490968E+00
(PID.TID 0000.0001) %MON dynstat_eta_min              =  -1.4198184531323E+01
(PID.TID 0000.0001) %MON dynstat_eta_mean             =  -2.5050624439314E+00
(PID.TID 0000.0001) %MON dynstat_eta_sd               =   4.9503023723303E+00
(PID.TID 0000.0001) %MON dynstat_eta_del2             =   2.0715173619197E-01
(PID.TID 0000.0001) %MON dynstat_uvel_max             =   5.3012856093382E-03
(PID.TID 0000.0001) %MON dynstat_uvel_min             =  -2.3613154266461E-02
(PID.TID 0000.0001) %MON dynstat_uvel_mean            =  -1.1680793821140E-07
(PID.TID 0000.0001) %MON dynstat_uvel_sd              =   6.9778062735184E-04
(PID.TID 0000.0001) %MON dynstat_uvel_del2            =   1.0258016910240E-06
(PID.TID 0000.0001) %MON dynstat_vvel_max             =   1.8649280649805E-02
(PID.TID 0000.0001) %MON dynstat_vvel_min             =  -7.5639023252290E-03
(PID.TID 0000.0001) %MON dynstat_vvel_mean            =   1.5538055635652E-05
(PID.TID 0000.0001) %MON dynstat_vvel_sd              =   4.2468475151233E-04
(PID.TID 0000.0001) %MON dynstat_vvel_del2            =   8.4932474947494E-07
(PID.TID 0000.0001) %MON dynstat_wvel_max             =   9.3444111269614E-04
(PID.TID 0000.0001) %MON dynstat_wvel_min             =  -9.0718325392408E-04
(PID.TID 0000.0001) %MON dynstat_wvel_mean            =   7.1244096580787E-09
(PID.TID 0000.0001) %MON dynstat_wvel_sd              =   1.7187103422661E-05
(PID.TID 0000.0001) %MON dynstat_wvel_del2            =   7.5271151644412E-08
(PID.TID 0000.0001) %MON dynstat_theta_max            =   1.2000000000000E+00
(PID.TID 0000.0001) %MON dynstat_theta_min            =  -1.0000000000000E+00
(PID.TID 0000.0001) %MON dynstat_theta_mean           =   5.6873234393524E-01
(PID.TID 0000.0001) %MON dynstat_theta_sd             =   8.6838342448000E-01
(PID.TID 0000.0001) %MON dynstat_theta_del2           =   2.7358246860535E-06
(PID.TID 0000.0001) %MON dynstat_salt_max             =   3.4700000000000E+01
(PID.TID 0000.0001) %MON dynstat_salt_min             =   3.4000000000000E+01
(PID.TID 0000.0001) %MON dynstat_salt_mean            =   3.4499107111092E+01
(PID.TID 0000.0001) %MON dynstat_salt_sd              =   2.7629080286171E-01
(PID.TID 0000.0001) %MON dynstat_salt_del2            =   1.0761516291493E-06
(PID.TID 0000.0001) %MON advcfl_uvel_max              =   2.3613154266461E-03
(PID.TID 0000.0001) %MON advcfl_vvel_max              =   1.8649280649805E-03
(PID.TID 0000.0001) %MON advcfl_wvel_max              =   4.6722055634807E-03
(PID.TID 0000.0001) %MON advcfl_W_hf_max              =   4.6722055634807E-03
(PID.TID 0000.0001) %MON pe_b_mean                    =  -8.3013910525729E-01
(PID.TID 0000.0001) %MON ke_max                       =   1.9887282025900E-04
(PID.TID 0000.0001) %MON ke_mean                      =   3.2891626538811E-07
(PID.TID 0000.0001) %MON ke_vol                       =   4.2724799876401E+12
(PID.TID 0000.0001) // =======================================================
(PID.TID 0000.0001) // End MONITOR dynamic field statistics
(PID.TID 0000.0001) // =======================================================
(PID.TID 0000.0001) // =======================================================
(PID.TID 0000.0001) // Begin OBCS MONITOR field statistics
(PID.TID 0000.0001) // =======================================================
(PID.TID 0000.0001) %MON obc_N_vVel_max               =   1.5252723585979E-05
(PID.TID 0000.0001) %MON obc_N_vVel_min               =   1.5252723585979E-05
(PID.TID 0000.0001) %MON obc_N_vVel_mean              =   1.5252723585979E-05
(PID.TID 0000.0001) %MON obc_N_vVel_sd                =   1.7758451749402E-12
(PID.TID 0000.0001) %MON obc_N_vVel_Int               =   1.0066797566746E+03
(PID.TID 0000.0001) // =======================================================
(PID.TID 0000.0001) // End OBCS MONITOR field statistics
(PID.TID 0000.0001) // =======================================================
 cg2d: Sum(rhs),rhsMax =   4.51010482781316E+00  2.99935160207187E+02
(PID.TID 0000.0001)      cg2d_init_res =   7.24737528892525E-06
(PID.TID 0000.0001)      cg2d_iters(min,last) =      -1      82
(PID.TID 0000.0001)      cg2d_last_res =   9.00801998770883E-12
(PID.TID 0000.0001) // =======================================================
(PID.TID 0000.0001) // Begin MONITOR dynamic field statistics
(PID.TID 0000.0001) // =======================================================
(PID.TID 0000.0001) %MON time_tsnumber                =                  1061
(PID.TID 0000.0001) %MON time_secondsf                =   1.0610000000000E+05
(PID.TID 0000.0001) %MON dynstat_eta_max              =   5.7989931153471E+00
(PID.TID 0000.0001) %MON dynstat_eta_min              =  -1.4198201255533E+01
(PID.TID 0000.0001) %MON dynstat_eta_mean             =  -2.5050722482988E+00
(PID.TID 0000.0001) %MON dynstat_eta_sd               =   4.9503058639366E+00
(PID.TID 0000.0001) %MON dynstat_eta_del2             =   2.0715176644778E-01
(PID.TID 0000.0001) %MON dynstat_uvel_max             =   5.3144095225868E-03
(PID.TID 0000.0001) %MON dynstat_uvel_min             =  -2.3676561599022E-02
(PID.TID 0000.0001) %MON dynstat_uvel_mean            =  -1.1513961317393E-07
(PID.TID 0000.0001) %MON dynstat_uvel_sd              =   6.9950360185943E-04
(PID.TID 0000.0001) %MON dynstat_uvel_del2            =   1.0282098692254E-06
(PID.TID 0000.0001) %MON dynstat_vvel_max             =   1.8692971745617E-02
(PID.TID 0000.0001) %MON dynstat_vvel_min             =  -7.5768036903208E-03
(PID.TID 0000.0001) %MON dynstat_vvel_mean            =   1.5494996260196E-05
(PID.TID 0000.0001) %MON dynstat_vvel_sd              =   4.2551617306052E-04
(PID.TID 0000.0001) %MON dynstat_vvel_del2            =   8.5072821654056E-07
(PID.TID 0000.0001) %MON dynstat_wvel_max             =   9.3686727924402E-04
(PID.TID 0000.0001) %MON dynstat_wvel_min             =  -9.0946747269810E-04
(PID.TID 0000.0001) %MON dynstat_wvel_mean            =   7.0477900695971E-09
(PID.TID 0000.0001) %MON dynstat_wvel_sd              =   1.7177508350116E-05
(PID.TID 0000.0001) %MON dynstat_wvel_del2            =   7.4861121341005E-08
(PID.TID 0000.0001) %MON dynstat_theta_max            =   1.2000000000000E+00
(PID.TID 0000.0001) %MON dynstat_theta_min            =  -1.0000000000000E+00
(PID.TID 0000.0001) %MON dynstat_theta_mean           =   5.6873149655240E-01
(PID.TID 0000.0001) %MON dynstat_theta_sd             =   8.6838296681756E-01
(PID.TID 0000.0001) %MON dynstat_theta_del2           =   2.7413775074865E-06
(PID.TID 0000.0001) %MON dynstat_salt_max             =   3.4700000000000E+01
(PID.TID 0000.0001) %MON dynstat_salt_min             =   3.4000000000000E+01
(PID.TID 0000.0001) %MON dynstat_salt_mean            =   3.4499106772041E+01
(PID.TID 0000.0001) %MON dynstat_salt_sd              =   2.7629062675978E-01
(PID.TID 0000.0001) %MON dynstat_salt_del2            =   1.0783782596827E-06
(PID.TID 0000.0001) %MON advcfl_uvel_max              =   2.3676561599022E-03
(PID.TID 0000.0001) %MON advcfl_vvel_max              =   1.8692971745617E-03
(PID.TID 0000.0001) %MON advcfl_wvel_max              =   4.6843363962201E-03
(PID.TID 0000.0001) %MON advcfl_W_hf_max              =   4.6843363962201E-03
(PID.TID 0000.0001) %MON pe_b_mean                    =  -8.3014161112680E-01
(PID.TID 0000.0001) %MON ke_max                       =   1.9999502452398E-04
(PID.TID 0000.0001) %MON ke_mean                      =   3.3044890266884E-07
(PID.TID 0000.0001) %MON ke_vol                       =   4.2724799290830E+12
(PID.TID 0000.0001) // =======================================================
(PID.TID 0000.0001) // End MONITOR dynamic field statistics
(PID.TID 0000.0001) // =======================================================
(PID.TID 0000.0001) // =======================================================
(PID.TID 0000.0001) // Begin OBCS MONITOR field statistics
(PID.TID 0000.0001) // =======================================================
(PID.TID 0000.0001) %MON obc_N_vVel_max               =   1.5216353862585E-05
(PID.TID 0000.0001) %MON obc_N_vVel_min               =   1.5216353862584E-05
(PID.TID 0000.0001) %MON obc_N_vVel_mean              =   1.5216353862584E-05
(PID.TID 0000.0001) %MON obc_N_vVel_sd                =   4.5927231159849E-12
(PID.TID 0000.0001) %MON obc_N_vVel_Int               =   1.0042793549306E+03
(PID.TID 0000.0001) // =======================================================
(PID.TID 0000.0001) // End OBCS MONITOR field statistics
(PID.TID 0000.0001) // =======================================================
 cg2d: Sum(rhs),rhsMax =   4.51012111493120E+00  2.99935244020739E+02
(PID.TID 0000.0001)      cg2d_init_res =   7.20752252850592E-06
(PID.TID 0000.0001)      cg2d_iters(min,last) =      -1      82
(PID.TID 0000.0001)      cg2d_last_res =   8.95199552094953E-12
(PID.TID 0000.0001) // =======================================================
(PID.TID 0000.0001) // Begin MONITOR dynamic field statistics
(PID.TID 0000.0001) // =======================================================
(PID.TID 0000.0001) %MON time_tsnumber                =                  1062
(PID.TID 0000.0001) %MON time_secondsf                =   1.0620000000000E+05
(PID.TID 0000.0001) %MON dynstat_eta_max              =   5.7989716599101E+00
(PID.TID 0000.0001) %MON dynstat_eta_min              =  -1.4198217860941E+01
(PID.TID 0000.0001) %MON dynstat_eta_mean             =  -2.5050819947592E+00
(PID.TID 0000.0001) %MON dynstat_eta_sd               =   4.9503093342423E+00
(PID.TID 0000.0001) %MON dynstat_eta_del2             =   2.0715179674152E-01
(PID.TID 0000.0001) %MON dynstat_uvel_max             =   5.3275590615200E-03
(PID.TID 0000.0001) %MON dynstat_uvel_min             =  -2.3740081617215E-02
(PID.TID 0000.0001) %MON dynstat_uvel_mean            =  -1.1333007177800E-07
(PID.TID 0000.0001) %MON dynstat_uvel_sd              =   7.0122984214451E-04
(PID.TID 0000.0001) %MON dynstat_uvel_del2            =   1.0306243234091E-06
(PID.TID 0000.0001) %MON dynstat_vvel_max             =   1.8736714268040E-02
(PID.TID 0000.0001) %MON dynstat_vvel_min             =  -7.5897181074787E-03
(PID.TID 0000.0001) %MON dynstat_vvel_mean            =   1.5448041029177E-05
(PID.TID 0000.0001) %MON dynstat_vvel_sd              =   4.2635773801121E-04
(PID.TID 0000.0001) %MON dynstat_vvel_del2            =   8.5219908892402E-07
(PID.TID 0000.0001) %MON dynstat_wvel_max             =   9.3929737164710E-04
(PID.TID 0000.0001) %MON dynstat_wvel_min             =  -9.1175542945462E-04
(PID.TID 0000.0001) %MON dynstat_wvel_mean            =   6.9700495028587E-09
(PID.TID 0000.0001) %MON dynstat_wvel_sd              =   1.7201870679839E-05
(PID.TID 0000.0001) %MON dynstat_wvel_del2            =   7.4593388333028E-08
(PID.TID 0000.0001) %MON dynstat_theta_max            =   1.2000000000000E+00
(PID.TID 0000.0001) %MON dynstat_theta_min            =  -1.0000000000000E+00
(PID.TID 0000.0001) %MON dynstat_theta_mean           =   5.6873064755856E-01
(PID.TID 0000.0001) %MON dynstat_theta_sd             =   8.6838250830568E-01
(PID.TID 0000.0001) %MON dynstat_theta_del2           =   2.7468795514366E-06
(PID.TID 0000.0001) %MON dynstat_salt_max             =   3.4700000000000E+01
(PID.TID 0000.0001) %MON dynstat_salt_min             =   3.4000000000000E+01
(PID.TID 0000.0001) %MON dynstat_salt_mean            =   3.4499106432346E+01
(PID.TID 0000.0001) %MON dynstat_salt_sd              =   2.7629045032773E-01
(PID.TID 0000.0001) %MON dynstat_salt_del2            =   1.0805948245468E-06
(PID.TID 0000.0001) %MON advcfl_uvel_max              =   2.3740081617215E-03
(PID.TID 0000.0001) %MON advcfl_vvel_max              =   1.8736714268040E-03
(PID.TID 0000.0001) %MON advcfl_wvel_max              =   4.6964868582355E-03
(PID.TID 0000.0001) %MON advcfl_W_hf_max              =   4.6964868582355E-03
(PID.TID 0000.0001) %MON pe_b_mean                    =  -8.3014410009082E-01
(PID.TID 0000.0001) %MON ke_max                       =   2.0112267533974E-04
(PID.TID 0000.0001) %MON ke_mean                      =   3.3199165203735E-07
(PID.TID 0000.0001) %MON ke_vol                       =   4.2724798708451E+12
(PID.TID 0000.0001) // =======================================================
(PID.TID 0000.0001) // End MONITOR dynamic field statistics
(PID.TID 0000.0001) // =======================================================
(PID.TID 0000.0001) // =======================================================
(PID.TID 0000.0001) // Begin OBCS MONITOR field statistics
(PID.TID 0000.0001) // =======================================================
(PID.TID 0000.0001) %MON obc_N_vVel_max               =   1.5176225915306E-05
(PID.TID 0000.0001) %MON obc_N_vVel_min               =   1.5176225915305E-05
(PID.TID 0000.0001) %MON obc_N_vVel_mean              =   1.5176225915306E-05
(PID.TID 0000.0001) %MON obc_N_vVel_sd                =  -1.0184661292059E-23
(PID.TID 0000.0001) %MON obc_N_vVel_Int               =   1.0016309104102E+03
(PID.TID 0000.0001) // =======================================================
(PID.TID 0000.0001) // End OBCS MONITOR field statistics
(PID.TID 0000.0001) // =======================================================
 cg2d: Sum(rhs),rhsMax =   4.51013732293281E+00  2.99935325719500E+02
(PID.TID 0000.0001)      cg2d_init_res =   7.16724773231331E-06
(PID.TID 0000.0001)      cg2d_iters(min,last) =      -1      82
(PID.TID 0000.0001)      cg2d_last_res =   8.90216508052767E-12
(PID.TID 0000.0001) // =======================================================
(PID.TID 0000.0001) // Begin MONITOR dynamic field statistics
(PID.TID 0000.0001) // =======================================================
(PID.TID 0000.0001) %MON time_tsnumber                =                  1063
(PID.TID 0000.0001) %MON time_secondsf                =   1.0630000000000E+05
(PID.TID 0000.0001) %MON dynstat_eta_max              =   5.7989502875956E+00
(PID.TID 0000.0001) %MON dynstat_eta_min              =  -1.4198234344058E+01
(PID.TID 0000.0001) %MON dynstat_eta_mean             =  -2.5050916796176E+00
(PID.TID 0000.0001) %MON dynstat_eta_sd               =   4.9503127825386E+00
(PID.TID 0000.0001) %MON dynstat_eta_del2             =   2.0715182707252E-01
(PID.TID 0000.0001) %MON dynstat_uvel_max             =   5.3407342090956E-03
(PID.TID 0000.0001) %MON dynstat_uvel_min             =  -2.3803714476486E-02
(PID.TID 0000.0001) %MON dynstat_uvel_mean            =  -1.1159566615428E-07
(PID.TID 0000.0001) %MON dynstat_uvel_sd              =   7.0295935661362E-04
(PID.TID 0000.0001) %MON dynstat_uvel_del2            =   1.0330449964626E-06
(PID.TID 0000.0001) %MON dynstat_vvel_max             =   1.8780508413160E-02
(PID.TID 0000.0001) %MON dynstat_vvel_min             =  -7.6047635708214E-03
(PID.TID 0000.0001) %MON dynstat_vvel_mean            =   1.5397721139108E-05
(PID.TID 0000.0001) %MON dynstat_vvel_sd              =   4.2720935477315E-04
(PID.TID 0000.0001) %MON dynstat_vvel_del2            =   8.5373990148903E-07
(PID.TID 0000.0001) %MON dynstat_wvel_max             =   9.4173137303375E-04
(PID.TID 0000.0001) %MON dynstat_wvel_min             =  -9.1404712141103E-04
(PID.TID 0000.0001) %MON dynstat_wvel_mean            =   6.8917613801146E-09
(PID.TID 0000.0001) %MON dynstat_wvel_sd              =   1.7259083957696E-05
(PID.TID 0000.0001) %MON dynstat_wvel_del2            =   7.4473017971968E-08
(PID.TID 0000.0001) %MON dynstat_theta_max            =   1.2000000000000E+00
(PID.TID 0000.0001) %MON dynstat_theta_min            =  -1.0000000000000E+00
(PID.TID 0000.0001) %MON dynstat_theta_mean           =   5.6872979694904E-01
(PID.TID 0000.0001) %MON dynstat_theta_sd             =   8.6838204893556E-01
(PID.TID 0000.0001) %MON dynstat_theta_del2           =   2.7523278998901E-06
(PID.TID 0000.0001) %MON dynstat_salt_max             =   3.4700000000000E+01
(PID.TID 0000.0001) %MON dynstat_salt_min             =   3.4000000000000E+01
(PID.TID 0000.0001) %MON dynstat_salt_mean            =   3.4499106092006E+01
(PID.TID 0000.0001) %MON dynstat_salt_sd              =   2.7629027356296E-01
(PID.TID 0000.0001) %MON dynstat_salt_del2            =   1.0828005942735E-06
(PID.TID 0000.0001) %MON advcfl_uvel_max              =   2.3803714476486E-03
(PID.TID 0000.0001) %MON advcfl_vvel_max              =   1.8780508413160E-03
(PID.TID 0000.0001) %MON advcfl_wvel_max              =   4.7086568651687E-03
(PID.TID 0000.0001) %MON advcfl_W_hf_max              =   4.7086568651687E-03
(PID.TID 0000.0001) %MON pe_b_mean                    =  -8.3014657130203E-01
(PID.TID 0000.0001) %MON ke_max                       =   2.0225579598899E-04
(PID.TID 0000.0001) %MON ke_mean                      =   3.3354453104146E-07
(PID.TID 0000.0001) %MON ke_vol                       =   4.2724798129511E+12
(PID.TID 0000.0001) // =======================================================
(PID.TID 0000.0001) // End MONITOR dynamic field statistics
(PID.TID 0000.0001) // =======================================================
(PID.TID 0000.0001) // =======================================================
(PID.TID 0000.0001) // Begin OBCS MONITOR field statistics
(PID.TID 0000.0001) // =======================================================
(PID.TID 0000.0001) %MON obc_N_vVel_max               =   1.5132782336733E-05
(PID.TID 0000.0001) %MON obc_N_vVel_min               =   1.5132782336733E-05
(PID.TID 0000.0001) %MON obc_N_vVel_mean              =   1.5132782336733E-05
(PID.TID 0000.0001) %MON obc_N_vVel_sd                =   2.7801023090063E-12
(PID.TID 0000.0001) %MON obc_N_vVel_Int               =   9.9876363422435E+02
(PID.TID 0000.0001) // =======================================================
(PID.TID 0000.0001) // End OBCS MONITOR field statistics
(PID.TID 0000.0001) // =======================================================
 cg2d: Sum(rhs),rhsMax =   4.51015344666759E+00  2.99935405266181E+02
(PID.TID 0000.0001)      cg2d_init_res =   7.12699626112945E-06
(PID.TID 0000.0001)      cg2d_iters(min,last) =      -1      82
(PID.TID 0000.0001)      cg2d_last_res =   8.86489914946109E-12
(PID.TID 0000.0001) // =======================================================
(PID.TID 0000.0001) // Begin MONITOR dynamic field statistics
(PID.TID 0000.0001) // =======================================================
(PID.TID 0000.0001) %MON time_tsnumber                =                  1064
(PID.TID 0000.0001) %MON time_secondsf                =   1.0640000000000E+05
(PID.TID 0000.0001) %MON dynstat_eta_max              =   5.7989290036613E+00
(PID.TID 0000.0001) %MON dynstat_eta_min              =  -1.4198250703798E+01
(PID.TID 0000.0001) %MON dynstat_eta_mean             =  -2.5051012997017E+00
(PID.TID 0000.0001) %MON dynstat_eta_sd               =   4.9503162082881E+00
(PID.TID 0000.0001) %MON dynstat_eta_del2             =   2.0715185744037E-01
(PID.TID 0000.0001) %MON dynstat_uvel_max             =   5.3539349105876E-03
(PID.TID 0000.0001) %MON dynstat_uvel_min             =  -2.3867460448143E-02
(PID.TID 0000.0001) %MON dynstat_uvel_mean            =  -1.1011610664571E-07
(PID.TID 0000.0001) %MON dynstat_uvel_sd              =   7.0469215618253E-04
(PID.TID 0000.0001) %MON dynstat_uvel_del2            =   1.0354718395580E-06
(PID.TID 0000.0001) %MON dynstat_vvel_max             =   1.8824354234630E-02
(PID.TID 0000.0001) %MON dynstat_vvel_min             =  -7.6252269706085E-03
(PID.TID 0000.0001) %MON dynstat_vvel_mean            =   1.5344594387303E-05
(PID.TID 0000.0001) %MON dynstat_vvel_sd              =   4.2807056079713E-04
(PID.TID 0000.0001) %MON dynstat_vvel_del2            =   8.5535064147532E-07
(PID.TID 0000.0001) %MON dynstat_wvel_max             =   9.4416927419753E-04
(PID.TID 0000.0001) %MON dynstat_wvel_min             =  -9.1634253987432E-04
(PID.TID 0000.0001) %MON dynstat_wvel_mean            =   6.8137587414741E-09
(PID.TID 0000.0001) %MON dynstat_wvel_sd              =   1.7346477697272E-05
(PID.TID 0000.0001) %MON dynstat_wvel_del2            =   7.4498479469482E-08
(PID.TID 0000.0001) %MON dynstat_theta_max            =   1.2000000000000E+00
(PID.TID 0000.0001) %MON dynstat_theta_min            =  -1.0000000000000E+00
(PID.TID 0000.0001) %MON dynstat_theta_mean           =   5.6872894471936E-01
(PID.TID 0000.0001) %MON dynstat_theta_sd             =   8.6838158869736E-01
(PID.TID 0000.0001) %MON dynstat_theta_del2           =   2.7577224079632E-06
(PID.TID 0000.0001) %MON dynstat_salt_max             =   3.4700000000000E+01
(PID.TID 0000.0001) %MON dynstat_salt_min             =   3.4000000000000E+01
(PID.TID 0000.0001) %MON dynstat_salt_mean            =   3.4499105751019E+01
(PID.TID 0000.0001) %MON dynstat_salt_sd              =   2.7629009646238E-01
(PID.TID 0000.0001) %MON dynstat_salt_del2            =   1.0849955360167E-06
(PID.TID 0000.0001) %MON advcfl_uvel_max              =   2.3867460448143E-03
(PID.TID 0000.0001) %MON advcfl_vvel_max              =   1.8824354234630E-03
(PID.TID 0000.0001) %MON advcfl_wvel_max              =   4.7208463709876E-03
(PID.TID 0000.0001) %MON advcfl_W_hf_max              =   4.7208463709876E-03
(PID.TID 0000.0001) %MON pe_b_mean                    =  -8.3014902405412E-01
(PID.TID 0000.0001) %MON ke_max                       =   2.0339441198003E-04
(PID.TID 0000.0001) %MON ke_mean                      =   3.3510740059194E-07
(PID.TID 0000.0001) %MON ke_vol                       =   4.2724797554231E+12
(PID.TID 0000.0001) // =======================================================
(PID.TID 0000.0001) // End MONITOR dynamic field statistics
(PID.TID 0000.0001) // =======================================================
(PID.TID 0000.0001) // =======================================================
(PID.TID 0000.0001) // Begin OBCS MONITOR field statistics
(PID.TID 0000.0001) // =======================================================
(PID.TID 0000.0001) %MON obc_N_vVel_max               =   1.5086494440055E-05
(PID.TID 0000.0001) %MON obc_N_vVel_min               =   1.5086494440054E-05
(PID.TID 0000.0001) %MON obc_N_vVel_mean              =   1.5086494440055E-05
(PID.TID 0000.0001) %MON obc_N_vVel_sd                =  -2.1997834415082E-23
(PID.TID 0000.0001) %MON obc_N_vVel_Int               =   9.9570863304360E+02
(PID.TID 0000.0001) // =======================================================
(PID.TID 0000.0001) // End OBCS MONITOR field statistics
(PID.TID 0000.0001) // =======================================================
 cg2d: Sum(rhs),rhsMax =   4.51016948168603E+00  2.99935482643211E+02
(PID.TID 0000.0001)      cg2d_init_res =   7.08719075504466E-06
(PID.TID 0000.0001)      cg2d_iters(min,last) =      -1      82
(PID.TID 0000.0001)      cg2d_last_res =   8.84316196868374E-12
(PID.TID 0000.0001) // =======================================================
(PID.TID 0000.0001) // Begin MONITOR dynamic field statistics
(PID.TID 0000.0001) // =======================================================
(PID.TID 0000.0001) %MON time_tsnumber                =                  1065
(PID.TID 0000.0001) %MON time_secondsf                =   1.0650000000000E+05
(PID.TID 0000.0001) %MON dynstat_eta_max              =   5.7989078138247E+00
(PID.TID 0000.0001) %MON dynstat_eta_min              =  -1.4198266940636E+01
(PID.TID 0000.0001) %MON dynstat_eta_mean             =  -2.5051108523929E+00
(PID.TID 0000.0001) %MON dynstat_eta_sd               =   4.9503196111150E+00
(PID.TID 0000.0001) %MON dynstat_eta_del2             =   2.0715188784478E-01
(PID.TID 0000.0001) %MON dynstat_uvel_max             =   5.3671610812493E-03
(PID.TID 0000.0001) %MON dynstat_uvel_min             =  -2.3931319882494E-02
(PID.TID 0000.0001) %MON dynstat_uvel_mean            =  -1.0901851318209E-07
(PID.TID 0000.0001) %MON dynstat_uvel_sd              =   7.0642825390763E-04
(PID.TID 0000.0001) %MON dynstat_uvel_del2            =   1.0379048121019E-06
(PID.TID 0000.0001) %MON dynstat_vvel_max             =   1.8868251677662E-02
(PID.TID 0000.0001) %MON dynstat_vvel_min             =  -7.6457413119293E-03
(PID.TID 0000.0001) %MON dynstat_vvel_mean            =   1.5289237209156E-05
(PID.TID 0000.0001) %MON dynstat_vvel_sd              =   4.2894055597636E-04
(PID.TID 0000.0001) %MON dynstat_vvel_del2            =   8.5702895662704E-07
(PID.TID 0000.0001) %MON dynstat_wvel_max             =   9.4661107188036E-04
(PID.TID 0000.0001) %MON dynstat_wvel_min             =  -9.1864167240361E-04
(PID.TID 0000.0001) %MON dynstat_wvel_mean            =   6.7370487532957E-09
(PID.TID 0000.0001) %MON dynstat_wvel_sd              =   1.7460039118457E-05
(PID.TID 0000.0001) %MON dynstat_wvel_del2            =   7.4662280965783E-08
(PID.TID 0000.0001) %MON dynstat_theta_max            =   1.2000000000000E+00
(PID.TID 0000.0001) %MON dynstat_theta_min            =  -1.0000000000000E+00
(PID.TID 0000.0001) %MON dynstat_theta_mean           =   5.6872809086549E-01
(PID.TID 0000.0001) %MON dynstat_theta_sd             =   8.6838112758259E-01
(PID.TID 0000.0001) %MON dynstat_theta_del2           =   2.7630658233723E-06
(PID.TID 0000.0001) %MON dynstat_salt_max             =   3.4700000000000E+01
(PID.TID 0000.0001) %MON dynstat_salt_min             =   3.4000000000000E+01
(PID.TID 0000.0001) %MON dynstat_salt_mean            =   3.4499105409384E+01
(PID.TID 0000.0001) %MON dynstat_salt_sd              =   2.7628991902323E-01
(PID.TID 0000.0001) %MON dynstat_salt_del2            =   1.0871803528308E-06
(PID.TID 0000.0001) %MON advcfl_uvel_max              =   2.3931319882494E-03
(PID.TID 0000.0001) %MON advcfl_vvel_max              =   1.8868251677662E-03
(PID.TID 0000.0001) %MON advcfl_wvel_max              =   4.7330553594018E-03
(PID.TID 0000.0001) %MON advcfl_W_hf_max              =   4.7330553594018E-03
(PID.TID 0000.0001) %MON pe_b_mean                    =  -8.3015145779427E-01
(PID.TID 0000.0001) %MON ke_max                       =   2.0453855038889E-04
(PID.TID 0000.0001) %MON ke_mean                      =   3.3667997728395E-07
(PID.TID 0000.0001) %MON ke_vol                       =   4.2724796982798E+12
(PID.TID 0000.0001) // =======================================================
(PID.TID 0000.0001) // End MONITOR dynamic field statistics
(PID.TID 0000.0001) // =======================================================
(PID.TID 0000.0001) // =======================================================
(PID.TID 0000.0001) // Begin OBCS MONITOR field statistics
(PID.TID 0000.0001) // =======================================================
(PID.TID 0000.0001) %MON obc_N_vVel_max               =   1.5037860562663E-05
(PID.TID 0000.0001) %MON obc_N_vVel_min               =   1.5037860562663E-05
(PID.TID 0000.0001) %MON obc_N_vVel_mean              =   1.5037860562663E-05
(PID.TID 0000.0001) %MON obc_N_vVel_sd                =   2.5573221771997E-12
(PID.TID 0000.0001) %MON obc_N_vVel_Int               =   9.9249879713574E+02
(PID.TID 0000.0001) // =======================================================
(PID.TID 0000.0001) // End OBCS MONITOR field statistics
(PID.TID 0000.0001) // =======================================================
 cg2d: Sum(rhs),rhsMax =   4.51018542426397E+00  2.99935557853626E+02
(PID.TID 0000.0001)      cg2d_init_res =   7.04823527293489E-06
(PID.TID 0000.0001)      cg2d_iters(min,last) =      -1      82
(PID.TID 0000.0001)      cg2d_last_res =   8.83714392721270E-12
(PID.TID 0000.0001) // =======================================================
(PID.TID 0000.0001) // Begin MONITOR dynamic field statistics
(PID.TID 0000.0001) // =======================================================
(PID.TID 0000.0001) %MON time_tsnumber                =                  1066
(PID.TID 0000.0001) %MON time_secondsf                =   1.0660000000000E+05
(PID.TID 0000.0001) %MON dynstat_eta_max              =   5.7988867245158E+00
(PID.TID 0000.0001) %MON dynstat_eta_min              =  -1.4198283055977E+01
(PID.TID 0000.0001) %MON dynstat_eta_mean             =  -2.5051203356480E+00
(PID.TID 0000.0001) %MON dynstat_eta_sd               =   4.9503229908048E+00
(PID.TID 0000.0001) %MON dynstat_eta_del2             =   2.0715191828567E-01
(PID.TID 0000.0001) %MON dynstat_uvel_max             =   5.3804126222801E-03
(PID.TID 0000.0001) %MON dynstat_uvel_min             =  -2.3995293151394E-02
(PID.TID 0000.0001) %MON dynstat_uvel_mean            =  -1.0837112438317E-07
(PID.TID 0000.0001) %MON dynstat_uvel_sd              =   7.0816766451733E-04
(PID.TID 0000.0001) %MON dynstat_uvel_del2            =   1.0403438816222E-06
(PID.TID 0000.0001) %MON dynstat_vvel_max             =   1.8912200628062E-02
(PID.TID 0000.0001) %MON dynstat_vvel_min             =  -7.6663067186828E-03
(PID.TID 0000.0001) %MON dynstat_vvel_mean            =   1.5232240312489E-05
(PID.TID 0000.0001) %MON dynstat_vvel_sd              =   4.2981824960376E-04
(PID.TID 0000.0001) %MON dynstat_vvel_del2            =   8.5877043440177E-07
(PID.TID 0000.0001) %MON dynstat_wvel_max             =   9.4905676586585E-04
(PID.TID 0000.0001) %MON dynstat_wvel_min             =  -9.2094450618230E-04
(PID.TID 0000.0001) %MON dynstat_wvel_mean            =   6.6627206954154E-09
(PID.TID 0000.0001) %MON dynstat_wvel_sd              =   1.7594703487504E-05
(PID.TID 0000.0001) %MON dynstat_wvel_del2            =   7.4951890124830E-08
(PID.TID 0000.0001) %MON dynstat_theta_max            =   1.2000000000000E+00
(PID.TID 0000.0001) %MON dynstat_theta_min            =  -1.0000000000000E+00
(PID.TID 0000.0001) %MON dynstat_theta_mean           =   5.6872723538373E-01
(PID.TID 0000.0001) %MON dynstat_theta_sd             =   8.6838066558140E-01
(PID.TID 0000.0001) %MON dynstat_theta_del2           =   2.7683633685719E-06
(PID.TID 0000.0001) %MON dynstat_salt_max             =   3.4700000000000E+01
(PID.TID 0000.0001) %MON dynstat_salt_min             =   3.4000000000000E+01
(PID.TID 0000.0001) %MON dynstat_salt_mean            =   3.4499105067099E+01
(PID.TID 0000.0001) %MON dynstat_salt_sd              =   2.7628974124256E-01
(PID.TID 0000.0001) %MON dynstat_salt_del2            =   1.0893563772535E-06
(PID.TID 0000.0001) %MON advcfl_uvel_max              =   2.3995293151394E-03
(PID.TID 0000.0001) %MON advcfl_vvel_max              =   1.8912200628062E-03
(PID.TID 0000.0001) %MON advcfl_wvel_max              =   4.7452838293293E-03
(PID.TID 0000.0001) %MON advcfl_W_hf_max              =   4.7452838293293E-03
(PID.TID 0000.0001) %MON pe_b_mean                    =  -8.3015387213040E-01
(PID.TID 0000.0001) %MON ke_max                       =   2.0568823880691E-04
(PID.TID 0000.0001) %MON ke_mean                      =   3.3826185166128E-07
(PID.TID 0000.0001) %MON ke_vol                       =   4.2724796415368E+12
(PID.TID 0000.0001) // =======================================================
(PID.TID 0000.0001) // End MONITOR dynamic field statistics
(PID.TID 0000.0001) // =======================================================
(PID.TID 0000.0001) // =======================================================
(PID.TID 0000.0001) // Begin OBCS MONITOR field statistics
(PID.TID 0000.0001) // =======================================================
(PID.TID 0000.0001) %MON obc_N_vVel_max               =   1.4987399137231E-05
(PID.TID 0000.0001) %MON obc_N_vVel_min               =   1.4987399137230E-05
(PID.TID 0000.0001) %MON obc_N_vVel_mean              =   1.4987399137231E-05
(PID.TID 0000.0001) %MON obc_N_vVel_sd                =  -2.2308027144789E-23
(PID.TID 0000.0001) %MON obc_N_vVel_Int               =   9.8916834305724E+02
(PID.TID 0000.0001) // =======================================================
(PID.TID 0000.0001) // End OBCS MONITOR field statistics
(PID.TID 0000.0001) // =======================================================
 cg2d: Sum(rhs),rhsMax =   4.51020127142619E+00  2.99935630921209E+02
(PID.TID 0000.0001)      cg2d_init_res =   7.01051207743311E-06
(PID.TID 0000.0001)      cg2d_iters(min,last) =      -1      82
(PID.TID 0000.0001)      cg2d_last_res =   8.84517450316476E-12
(PID.TID 0000.0001) // =======================================================
(PID.TID 0000.0001) // Begin MONITOR dynamic field statistics
(PID.TID 0000.0001) // =======================================================
(PID.TID 0000.0001) %MON time_tsnumber                =                  1067
(PID.TID 0000.0001) %MON time_secondsf                =   1.0670000000000E+05
(PID.TID 0000.0001) %MON dynstat_eta_max              =   5.7988657421749E+00
(PID.TID 0000.0001) %MON dynstat_eta_min              =  -1.4198299051821E+01
(PID.TID 0000.0001) %MON dynstat_eta_mean             =  -2.5051297480127E+00
(PID.TID 0000.0001) %MON dynstat_eta_sd               =   4.9503263473140E+00
(PID.TID 0000.0001) %MON dynstat_eta_del2             =   2.0715194876317E-01
(PID.TID 0000.0001) %MON dynstat_uvel_max             =   5.3936894404529E-03
(PID.TID 0000.0001) %MON dynstat_uvel_min             =  -2.4059380586039E-02
(PID.TID 0000.0001) %MON dynstat_uvel_mean            =  -1.0818509215721E-07
(PID.TID 0000.0001) %MON dynstat_uvel_sd              =   7.0991040397653E-04
(PID.TID 0000.0001) %MON dynstat_uvel_del2            =   1.0427890231889E-06
(PID.TID 0000.0001) %MON dynstat_vvel_max             =   1.8956200955781E-02
(PID.TID 0000.0001) %MON dynstat_vvel_min             =  -7.6869232794365E-03
(PID.TID 0000.0001) %MON dynstat_vvel_mean            =   1.5174205913156E-05
(PID.TID 0000.0001) %MON dynstat_vvel_sd              =   4.3070231810868E-04
(PID.TID 0000.0001) %MON dynstat_vvel_del2            =   8.6056892945538E-07
(PID.TID 0000.0001) %MON dynstat_wvel_max             =   9.5150635620139E-04
(PID.TID 0000.0001) %MON dynstat_wvel_min             =  -9.2325103114613E-04
(PID.TID 0000.0001) %MON dynstat_wvel_mean            =   6.5918606573735E-09
(PID.TID 0000.0001) %MON dynstat_wvel_sd              =   1.7744680678544E-05
(PID.TID 0000.0001) %MON dynstat_wvel_del2            =   7.5350813425771E-08
(PID.TID 0000.0001) %MON dynstat_theta_max            =   1.2000000000000E+00
(PID.TID 0000.0001) %MON dynstat_theta_min            =  -1.0000000000000E+00
(PID.TID 0000.0001) %MON dynstat_theta_mean           =   5.6872637827089E-01
(PID.TID 0000.0001) %MON dynstat_theta_sd             =   8.6838020269100E-01
(PID.TID 0000.0001) %MON dynstat_theta_del2           =   2.7736223976026E-06
(PID.TID 0000.0001) %MON dynstat_salt_max             =   3.4700000000000E+01
(PID.TID 0000.0001) %MON dynstat_salt_min             =   3.4000000000000E+01
(PID.TID 0000.0001) %MON dynstat_salt_mean            =   3.4499104724164E+01
(PID.TID 0000.0001) %MON dynstat_salt_sd              =   2.7628956311942E-01
(PID.TID 0000.0001) %MON dynstat_salt_del2            =   1.0915254721075E-06
(PID.TID 0000.0001) %MON advcfl_uvel_max              =   2.4059380586039E-03
(PID.TID 0000.0001) %MON advcfl_vvel_max              =   1.8956200955781E-03
(PID.TID 0000.0001) %MON advcfl_wvel_max              =   4.7575317810070E-03
(PID.TID 0000.0001) %MON advcfl_W_hf_max              =   4.7575317810070E-03
(PID.TID 0000.0001) %MON pe_b_mean                    =  -8.3015626683436E-01
(PID.TID 0000.0001) %MON ke_max                       =   2.0684350418123E-04
(PID.TID 0000.0001) %MON ke_mean                      =   3.3985251138537E-07
(PID.TID 0000.0001) %MON ke_vol                       =   4.2724795852063E+12
(PID.TID 0000.0001) // =======================================================
(PID.TID 0000.0001) // End MONITOR dynamic field statistics
(PID.TID 0000.0001) // =======================================================
(PID.TID 0000.0001) // =======================================================
(PID.TID 0000.0001) // Begin OBCS MONITOR field statistics
(PID.TID 0000.0001) // =======================================================
(PID.TID 0000.0001) %MON obc_N_vVel_max               =   1.4935641188356E-05
(PID.TID 0000.0001) %MON obc_N_vVel_min               =   1.4935641188356E-05
(PID.TID 0000.0001) %MON obc_N_vVel_mean              =   1.4935641188356E-05
(PID.TID 0000.0001) %MON obc_N_vVel_sd                =   1.5834744177919E-12
(PID.TID 0000.0001) %MON obc_N_vVel_Int               =   9.8575231843149E+02
(PID.TID 0000.0001) // =======================================================
(PID.TID 0000.0001) // End OBCS MONITOR field statistics
(PID.TID 0000.0001) // =======================================================
 cg2d: Sum(rhs),rhsMax =   4.51021702097107E+00  2.99935701889841E+02
(PID.TID 0000.0001)      cg2d_init_res =   6.97438465389923E-06
(PID.TID 0000.0001)      cg2d_iters(min,last) =      -1      82
(PID.TID 0000.0001)      cg2d_last_res =   8.86452140152017E-12
(PID.TID 0000.0001) // =======================================================
(PID.TID 0000.0001) // Begin MONITOR dynamic field statistics
(PID.TID 0000.0001) // =======================================================
(PID.TID 0000.0001) %MON time_tsnumber                =                  1068
(PID.TID 0000.0001) %MON time_secondsf                =   1.0680000000000E+05
(PID.TID 0000.0001) %MON dynstat_eta_max              =   5.7988448725598E+00
(PID.TID 0000.0001) %MON dynstat_eta_min              =  -1.4198314930616E+01
(PID.TID 0000.0001) %MON dynstat_eta_mean             =  -2.5051390886305E+00
(PID.TID 0000.0001) %MON dynstat_eta_sd               =   4.9503296807853E+00
(PID.TID 0000.0001) %MON dynstat_eta_del2             =   2.0715197927763E-01
(PID.TID 0000.0001) %MON dynstat_uvel_max             =   5.4069914652324E-03
(PID.TID 0000.0001) %MON dynstat_uvel_min             =  -2.4123582427208E-02
(PID.TID 0000.0001) %MON dynstat_uvel_mean            =  -1.0842221508173E-07
(PID.TID 0000.0001) %MON dynstat_uvel_sd              =   7.1165648914972E-04
(PID.TID 0000.0001) %MON dynstat_uvel_del2            =   1.0452402188675E-06
(PID.TID 0000.0001) %MON dynstat_vvel_max             =   1.9000252541701E-02
(PID.TID 0000.0001) %MON dynstat_vvel_min             =  -7.7075910224416E-03
(PID.TID 0000.0001) %MON dynstat_vvel_mean            =   1.5115744969802E-05
(PID.TID 0000.0001) %MON dynstat_vvel_sd              =   4.3159127060130E-04
(PID.TID 0000.0001) %MON dynstat_vvel_del2            =   8.6241691847545E-07
(PID.TID 0000.0001) %MON dynstat_wvel_max             =   9.5395984150089E-04
(PID.TID 0000.0001) %MON dynstat_wvel_min             =  -9.2556124287821E-04
(PID.TID 0000.0001) %MON dynstat_wvel_mean            =   6.5254812627847E-09
(PID.TID 0000.0001) %MON dynstat_wvel_sd              =   1.7903787284066E-05
(PID.TID 0000.0001) %MON dynstat_wvel_del2            =   7.5839710632061E-08
(PID.TID 0000.0001) %MON dynstat_theta_max            =   1.2000000000000E+00
(PID.TID 0000.0001) %MON dynstat_theta_min            =  -1.0000000000000E+00
(PID.TID 0000.0001) %MON dynstat_theta_mean           =   5.6872551952421E-01
(PID.TID 0000.0001) %MON dynstat_theta_sd             =   8.6837973891403E-01
(PID.TID 0000.0001) %MON dynstat_theta_del2           =   2.7788520648525E-06
(PID.TID 0000.0001) %MON dynstat_salt_max             =   3.4700000000000E+01
(PID.TID 0000.0001) %MON dynstat_salt_min             =   3.4000000000000E+01
(PID.TID 0000.0001) %MON dynstat_salt_mean            =   3.4499104380577E+01
(PID.TID 0000.0001) %MON dynstat_salt_sd              =   2.7628938465466E-01
(PID.TID 0000.0001) %MON dynstat_salt_del2            =   1.0936899462796E-06
(PID.TID 0000.0001) %MON advcfl_uvel_max              =   2.4123582427208E-03
(PID.TID 0000.0001) %MON advcfl_vvel_max              =   1.9000252541701E-03
(PID.TID 0000.0001) %MON advcfl_wvel_max              =   4.7697992075044E-03
(PID.TID 0000.0001) %MON advcfl_W_hf_max              =   4.7697992075044E-03
(PID.TID 0000.0001) %MON pe_b_mean                    =  -8.3015864184153E-01
(PID.TID 0000.0001) %MON ke_max                       =   2.0800437186926E-04
(PID.TID 0000.0001) %MON ke_mean                      =   3.4145136813302E-07
(PID.TID 0000.0001) %MON ke_vol                       =   4.2724795292968E+12
(PID.TID 0000.0001) // =======================================================
(PID.TID 0000.0001) // End MONITOR dynamic field statistics
(PID.TID 0000.0001) // =======================================================
(PID.TID 0000.0001) // =======================================================
(PID.TID 0000.0001) // Begin OBCS MONITOR field statistics
(PID.TID 0000.0001) // =======================================================
(PID.TID 0000.0001) %MON obc_N_vVel_max               =   1.4883125223792E-05
(PID.TID 0000.0001) %MON obc_N_vVel_min               =   1.4883125223792E-05
(PID.TID 0000.0001) %MON obc_N_vVel_mean              =   1.4883125223792E-05
(PID.TID 0000.0001) %MON obc_N_vVel_sd                =  -4.0583548803383E-24
(PID.TID 0000.0001) %MON obc_N_vVel_Int               =   9.8228626477030E+02
(PID.TID 0000.0001) // =======================================================
(PID.TID 0000.0001) // End OBCS MONITOR field statistics
(PID.TID 0000.0001) // =======================================================
 cg2d: Sum(rhs),rhsMax =   4.51023267149683E+00  2.99935770822437E+02
(PID.TID 0000.0001)      cg2d_init_res =   6.94020268402416E-06
(PID.TID 0000.0001)      cg2d_iters(min,last) =      -1      82
(PID.TID 0000.0001)      cg2d_last_res =   8.89196570880231E-12
(PID.TID 0000.0001) // =======================================================
(PID.TID 0000.0001) // Begin MONITOR dynamic field statistics
(PID.TID 0000.0001) // =======================================================
(PID.TID 0000.0001) %MON time_tsnumber                =                  1069
(PID.TID 0000.0001) %MON time_secondsf                =   1.0690000000000E+05
(PID.TID 0000.0001) %MON dynstat_eta_max              =   5.7988241199956E+00
(PID.TID 0000.0001) %MON dynstat_eta_min              =  -1.4198330695192E+01
(PID.TID 0000.0001) %MON dynstat_eta_mean             =  -2.5051483572480E+00
(PID.TID 0000.0001) %MON dynstat_eta_sd               =   4.9503329915653E+00
(PID.TID 0000.0001) %MON dynstat_eta_del2             =   2.0715200982961E-01
(PID.TID 0000.0001) %MON dynstat_uvel_max             =   5.4203186595210E-03
(PID.TID 0000.0001) %MON dynstat_uvel_min             =  -2.4187898800403E-02
(PID.TID 0000.0001) %MON dynstat_uvel_mean            =  -1.0900648173269E-07
(PID.TID 0000.0001) %MON dynstat_uvel_sd              =   7.1340593756657E-04
(PID.TID 0000.0001) %MON dynstat_uvel_del2            =   1.0476974570407E-06
(PID.TID 0000.0001) %MON dynstat_vvel_max             =   1.9044355285543E-02
(PID.TID 0000.0001) %MON dynstat_vvel_min             =  -7.7283099067778E-03
(PID.TID 0000.0001) %MON dynstat_vvel_mean            =   1.5057473596041E-05
(PID.TID 0000.0001) %MON dynstat_vvel_sd              =   4.3248351913039E-04
(PID.TID 0000.0001) %MON dynstat_vvel_del2            =   8.6430586476170E-07
(PID.TID 0000.0001) %MON dynstat_wvel_max             =   9.5641721845553E-04
(PID.TID 0000.0001) %MON dynstat_wvel_min             =  -9.2787514360831E-04
(PID.TID 0000.0001) %MON dynstat_wvel_mean            =   6.4644699913352E-09
(PID.TID 0000.0001) %MON dynstat_wvel_sd              =   1.8065759532831E-05
(PID.TID 0000.0001) %MON dynstat_wvel_del2            =   7.6397443580741E-08
(PID.TID 0000.0001) %MON dynstat_theta_max            =   1.2000000000000E+00
(PID.TID 0000.0001) %MON dynstat_theta_min            =  -1.0000000000000E+00
(PID.TID 0000.0001) %MON dynstat_theta_mean           =   5.6872465914137E-01
(PID.TID 0000.0001) %MON dynstat_theta_sd             =   8.6837927425700E-01
(PID.TID 0000.0001) %MON dynstat_theta_del2           =   2.7840628076941E-06
(PID.TID 0000.0001) %MON dynstat_salt_max             =   3.4700000000000E+01
(PID.TID 0000.0001) %MON dynstat_salt_min             =   3.4000000000000E+01
(PID.TID 0000.0001) %MON dynstat_salt_mean            =   3.4499104036338E+01
(PID.TID 0000.0001) %MON dynstat_salt_sd              =   2.7628920585027E-01
(PID.TID 0000.0001) %MON dynstat_salt_del2            =   1.0958525138981E-06
(PID.TID 0000.0001) %MON advcfl_uvel_max              =   2.4187898800403E-03
(PID.TID 0000.0001) %MON advcfl_vvel_max              =   1.9044355285543E-03
(PID.TID 0000.0001) %MON advcfl_wvel_max              =   4.7820860922777E-03
(PID.TID 0000.0001) %MON advcfl_W_hf_max              =   4.7820860922777E-03
(PID.TID 0000.0001) %MON pe_b_mean                    =  -8.3016099724834E-01
(PID.TID 0000.0001) %MON ke_max                       =   2.0917086514726E-04
(PID.TID 0000.0001) %MON ke_mean                      =   3.4305778694074E-07
(PID.TID 0000.0001) %MON ke_vol                       =   4.2724794738135E+12
(PID.TID 0000.0001) // =======================================================
(PID.TID 0000.0001) // End MONITOR dynamic field statistics
(PID.TID 0000.0001) // =======================================================
(PID.TID 0000.0001) // =======================================================
(PID.TID 0000.0001) // Begin OBCS MONITOR field statistics
(PID.TID 0000.0001) // =======================================================
(PID.TID 0000.0001) %MON obc_N_vVel_max               =   1.4830394859854E-05
(PID.TID 0000.0001) %MON obc_N_vVel_min               =   1.4830394859854E-05
(PID.TID 0000.0001) %MON obc_N_vVel_mean              =   1.4830394859854E-05
(PID.TID 0000.0001) %MON obc_N_vVel_sd                =  -5.4025233757370E-24
(PID.TID 0000.0001) %MON obc_N_vVel_Int               =   9.7880606075036E+02
(PID.TID 0000.0001) // =======================================================
(PID.TID 0000.0001) // End OBCS MONITOR field statistics
(PID.TID 0000.0001) // =======================================================
 cg2d: Sum(rhs),rhsMax =   4.51024822241559E+00  2.99935837800590E+02
(PID.TID 0000.0001)      cg2d_init_res =   6.90830023520028E-06
(PID.TID 0000.0001)      cg2d_iters(min,last) =      -1      82
(PID.TID 0000.0001)      cg2d_last_res =   8.92422120118905E-12
(PID.TID 0000.0001) // =======================================================
(PID.TID 0000.0001) // Begin MONITOR dynamic field statistics
(PID.TID 0000.0001) // =======================================================
(PID.TID 0000.0001) %MON time_tsnumber                =                  1070
(PID.TID 0000.0001) %MON time_secondsf                =   1.0700000000000E+05
(PID.TID 0000.0001) %MON dynstat_eta_max              =   5.7988034867299E+00
(PID.TID 0000.0001) %MON dynstat_eta_min              =  -1.4198346348773E+01
(PID.TID 0000.0001) %MON dynstat_eta_mean             =  -2.5051575542201E+00
(PID.TID 0000.0001) %MON dynstat_eta_sd               =   4.9503362802183E+00
(PID.TID 0000.0001) %MON dynstat_eta_del2             =   2.0715204042000E-01
(PID.TID 0000.0001) %MON dynstat_uvel_max             =   5.4336710214216E-03
(PID.TID 0000.0001) %MON dynstat_uvel_min             =  -2.4252329720190E-02
(PID.TID 0000.0001) %MON dynstat_uvel_mean            =  -1.0983758469599E-07
(PID.TID 0000.0001) %MON dynstat_uvel_sd              =   7.1515876724282E-04
(PID.TID 0000.0001) %MON dynstat_uvel_del2            =   1.0501607313082E-06
(PID.TID 0000.0001) %MON dynstat_vvel_max             =   1.9088509099326E-02
(PID.TID 0000.0001) %MON dynstat_vvel_min             =  -7.7490798300985E-03
(PID.TID 0000.0001) %MON dynstat_vvel_mean            =   1.5000008329841E-05
(PID.TID 0000.0001) %MON dynstat_vvel_sd              =   4.3337745058478E-04
(PID.TID 0000.0001) %MON dynstat_vvel_del2            =   8.6622657918634E-07
(PID.TID 0000.0001) %MON dynstat_wvel_max             =   9.5887848225742E-04
(PID.TID 0000.0001) %MON dynstat_wvel_min             =  -9.3019274163884E-04
(PID.TID 0000.0001) %MON dynstat_wvel_mean            =   6.4095629029381E-09
(PID.TID 0000.0001) %MON dynstat_wvel_sd              =   1.8224530455020E-05
(PID.TID 0000.0001) %MON dynstat_wvel_del2            =   7.7001993297912E-08
(PID.TID 0000.0001) %MON dynstat_theta_max            =   1.2000000000000E+00
(PID.TID 0000.0001) %MON dynstat_theta_min            =  -1.0000000000000E+00
(PID.TID 0000.0001) %MON dynstat_theta_mean           =   5.6872379712062E-01
(PID.TID 0000.0001) %MON dynstat_theta_sd             =   8.6837880872541E-01
(PID.TID 0000.0001) %MON dynstat_theta_del2           =   2.7892659873559E-06
(PID.TID 0000.0001) %MON dynstat_salt_max             =   3.4700000000000E+01
(PID.TID 0000.0001) %MON dynstat_salt_min             =   3.4000000000000E+01
(PID.TID 0000.0001) %MON dynstat_salt_mean            =   3.4499103691445E+01
(PID.TID 0000.0001) %MON dynstat_salt_sd              =   2.7628902670805E-01
(PID.TID 0000.0001) %MON dynstat_salt_del2            =   1.0980159363186E-06
(PID.TID 0000.0001) %MON advcfl_uvel_max              =   2.4252329720190E-03
(PID.TID 0000.0001) %MON advcfl_vvel_max              =   1.9088509099326E-03
(PID.TID 0000.0001) %MON advcfl_wvel_max              =   4.7943924112871E-03
(PID.TID 0000.0001) %MON advcfl_W_hf_max              =   4.7943924112871E-03
(PID.TID 0000.0001) %MON pe_b_mean                    =  -8.3016333330878E-01
(PID.TID 0000.0001) %MON ke_max                       =   2.1034300526239E-04
(PID.TID 0000.0001) %MON ke_mean                      =   3.4467111667587E-07
(PID.TID 0000.0001) %MON ke_vol                       =   4.2724794187579E+12
(PID.TID 0000.0001) // =======================================================
(PID.TID 0000.0001) // End MONITOR dynamic field statistics
(PID.TID 0000.0001) // =======================================================
(PID.TID 0000.0001) // =======================================================
(PID.TID 0000.0001) // Begin OBCS MONITOR field statistics
(PID.TID 0000.0001) // =======================================================
(PID.TID 0000.0001) %MON obc_N_vVel_max               =   1.4777997322741E-05
(PID.TID 0000.0001) %MON obc_N_vVel_min               =   1.4777997322741E-05
(PID.TID 0000.0001) %MON obc_N_vVel_mean              =   1.4777997322741E-05
(PID.TID 0000.0001) %MON obc_N_vVel_sd                =   1.1368683772162E-12
(PID.TID 0000.0001) %MON obc_N_vVel_Int               =   9.7534782330090E+02
(PID.TID 0000.0001) // =======================================================
(PID.TID 0000.0001) // End OBCS MONITOR field statistics
(PID.TID 0000.0001) // =======================================================
 cg2d: Sum(rhs),rhsMax =   4.51026367396404E+00  2.99935902923987E+02
(PID.TID 0000.0001)      cg2d_init_res =   6.87896729371448E-06
(PID.TID 0000.0001)      cg2d_iters(min,last) =      -1      82
(PID.TID 0000.0001)      cg2d_last_res =   8.95818851963110E-12
(PID.TID 0000.0001) // =======================================================
(PID.TID 0000.0001) // Begin MONITOR dynamic field statistics
(PID.TID 0000.0001) // =======================================================
(PID.TID 0000.0001) %MON time_tsnumber                =                  1071
(PID.TID 0000.0001) %MON time_secondsf                =   1.0710000000000E+05
(PID.TID 0000.0001) %MON dynstat_eta_max              =   5.7987829725180E+00
(PID.TID 0000.0001) %MON dynstat_eta_min              =  -1.4198361894935E+01
(PID.TID 0000.0001) %MON dynstat_eta_mean             =  -2.5051666805105E+00
(PID.TID 0000.0001) %MON dynstat_eta_sd               =   4.9503395475260E+00
(PID.TID 0000.0001) %MON dynstat_eta_del2             =   2.0715207104962E-01
(PID.TID 0000.0001) %MON dynstat_uvel_max             =   5.4470485778424E-03
(PID.TID 0000.0001) %MON dynstat_uvel_min             =  -2.4316875118996E-02
(PID.TID 0000.0001) %MON dynstat_uvel_mean            =  -1.1080485145523E-07
(PID.TID 0000.0001) %MON dynstat_uvel_sd              =   7.1691499655176E-04
(PID.TID 0000.0001) %MON dynstat_uvel_del2            =   1.0526300403747E-06
(PID.TID 0000.0001) %MON dynstat_vvel_max             =   1.9132713894133E-02
(PID.TID 0000.0001) %MON dynstat_vvel_min             =  -7.7699006496310E-03
(PID.TID 0000.0001) %MON dynstat_vvel_mean            =   1.4943960292533E-05
(PID.TID 0000.0001) %MON dynstat_vvel_sd              =   4.3427149731327E-04
(PID.TID 0000.0001) %MON dynstat_vvel_del2            =   8.6816956490038E-07
(PID.TID 0000.0001) %MON dynstat_wvel_max             =   9.6134362737142E-04
(PID.TID 0000.0001) %MON dynstat_wvel_min             =  -9.3251404958741E-04
(PID.TID 0000.0001) %MON dynstat_wvel_mean            =   6.3613463220532E-09
(PID.TID 0000.0001) %MON dynstat_wvel_sd              =   1.8374462790144E-05
(PID.TID 0000.0001) %MON dynstat_wvel_del2            =   7.7631217934236E-08
(PID.TID 0000.0001) %MON dynstat_theta_max            =   1.2000000000000E+00
(PID.TID 0000.0001) %MON dynstat_theta_min            =  -1.0000000000000E+00
(PID.TID 0000.0001) %MON dynstat_theta_mean           =   5.6872293346071E-01
(PID.TID 0000.0001) %MON dynstat_theta_sd             =   8.6837834232593E-01
(PID.TID 0000.0001) %MON dynstat_theta_del2           =   2.7944733857422E-06
(PID.TID 0000.0001) %MON dynstat_salt_max             =   3.4700000000000E+01
(PID.TID 0000.0001) %MON dynstat_salt_min             =   3.4000000000000E+01
(PID.TID 0000.0001) %MON dynstat_salt_mean            =   3.4499103345898E+01
(PID.TID 0000.0001) %MON dynstat_salt_sd              =   2.7628884722996E-01
(PID.TID 0000.0001) %MON dynstat_salt_del2            =   1.1001831538041E-06
(PID.TID 0000.0001) %MON advcfl_uvel_max              =   2.4316875118996E-03
(PID.TID 0000.0001) %MON advcfl_vvel_max              =   1.9132713894133E-03
(PID.TID 0000.0001) %MON advcfl_wvel_max              =   4.8067181368571E-03
(PID.TID 0000.0001) %MON advcfl_W_hf_max              =   4.8067181368571E-03
(PID.TID 0000.0001) %MON pe_b_mean                    =  -8.3016565043023E-01
(PID.TID 0000.0001) %MON ke_max                       =   2.1152081195128E-04
(PID.TID 0000.0001) %MON ke_mean                      =   3.4629072038219E-07
(PID.TID 0000.0001) %MON ke_vol                       =   4.2724793641279E+12
(PID.TID 0000.0001) // =======================================================
(PID.TID 0000.0001) // End MONITOR dynamic field statistics
(PID.TID 0000.0001) // =======================================================
(PID.TID 0000.0001) // =======================================================
(PID.TID 0000.0001) // Begin OBCS MONITOR field statistics
(PID.TID 0000.0001) // =======================================================
(PID.TID 0000.0001) %MON obc_N_vVel_max               =   1.4726480976168E-05
(PID.TID 0000.0001) %MON obc_N_vVel_min               =   1.4726480976167E-05
(PID.TID 0000.0001) %MON obc_N_vVel_mean              =   1.4726480976168E-05
(PID.TID 0000.0001) %MON obc_N_vVel_sd                =  -1.1322034634320E-23
(PID.TID 0000.0001) %MON obc_N_vVel_Int               =   9.7194774442708E+02
(PID.TID 0000.0001) // =======================================================
(PID.TID 0000.0001) // End OBCS MONITOR field statistics
(PID.TID 0000.0001) // =======================================================
 cg2d: Sum(rhs),rhsMax =   4.51027902720913E+00  2.99935966309465E+02
(PID.TID 0000.0001)      cg2d_init_res =   6.85249343570003E-06
(PID.TID 0000.0001)      cg2d_iters(min,last) =      -1      82
(PID.TID 0000.0001)      cg2d_last_res =   8.99134178314993E-12
(PID.TID 0000.0001) // =======================================================
(PID.TID 0000.0001) // Begin MONITOR dynamic field statistics
(PID.TID 0000.0001) // =======================================================
(PID.TID 0000.0001) %MON time_tsnumber                =                  1072
(PID.TID 0000.0001) %MON time_secondsf                =   1.0720000000000E+05
(PID.TID 0000.0001) %MON dynstat_eta_max              =   5.7987625744789E+00
(PID.TID 0000.0001) %MON dynstat_eta_min              =  -1.4198377337606E+01
(PID.TID 0000.0001) %MON dynstat_eta_mean             =  -2.5051757376876E+00
(PID.TID 0000.0001) %MON dynstat_eta_sd               =   4.9503427944903E+00
(PID.TID 0000.0001) %MON dynstat_eta_del2             =   2.0715210171975E-01
(PID.TID 0000.0001) %MON dynstat_uvel_max             =   5.4604513728691E-03
(PID.TID 0000.0001) %MON dynstat_uvel_min             =  -2.4381534890176E-02
(PID.TID 0000.0001) %MON dynstat_uvel_mean            =  -1.1180022720961E-07
(PID.TID 0000.0001) %MON dynstat_uvel_sd              =   7.1867464407772E-04
(PID.TID 0000.0001) %MON dynstat_uvel_del2            =   1.0551053869245E-06
(PID.TID 0000.0001) %MON dynstat_vvel_max             =   1.9176969574001E-02
(PID.TID 0000.0001) %MON dynstat_vvel_min             =  -7.7907722102992E-03
(PID.TID 0000.0001) %MON dynstat_vvel_mean            =   1.4889928473801E-05
(PID.TID 0000.0001) %MON dynstat_vvel_sd              =   4.3516420359284E-04
(PID.TID 0000.0001) %MON dynstat_vvel_del2            =   8.7012534410281E-07
(PID.TID 0000.0001) %MON dynstat_wvel_max             =   9.6381264826361E-04
(PID.TID 0000.0001) %MON dynstat_wvel_min             =  -9.3483908172486E-04
(PID.TID 0000.0001) %MON dynstat_wvel_mean            =   6.3202746809445E-09
(PID.TID 0000.0001) %MON dynstat_wvel_sd              =   1.8510535806156E-05
(PID.TID 0000.0001) %MON dynstat_wvel_del2            =   7.8263456964947E-08
(PID.TID 0000.0001) %MON dynstat_theta_max            =   1.2000000000000E+00
(PID.TID 0000.0001) %MON dynstat_theta_min            =  -1.0000000000000E+00
(PID.TID 0000.0001) %MON dynstat_theta_mean           =   5.6872206816074E-01
(PID.TID 0000.0001) %MON dynstat_theta_sd             =   8.6837787506498E-01
(PID.TID 0000.0001) %MON dynstat_theta_del2           =   2.7996968867233E-06
(PID.TID 0000.0001) %MON dynstat_salt_max             =   3.4700000000000E+01
(PID.TID 0000.0001) %MON dynstat_salt_min             =   3.4000000000000E+01
(PID.TID 0000.0001) %MON dynstat_salt_mean            =   3.4499102999697E+01
(PID.TID 0000.0001) %MON dynstat_salt_sd              =   2.7628866741808E-01
(PID.TID 0000.0001) %MON dynstat_salt_del2            =   1.1023571371939E-06
(PID.TID 0000.0001) %MON advcfl_uvel_max              =   2.4381534890176E-03
(PID.TID 0000.0001) %MON advcfl_vvel_max              =   1.9176969574001E-03
(PID.TID 0000.0001) %MON advcfl_wvel_max              =   4.8190632413180E-03
(PID.TID 0000.0001) %MON advcfl_W_hf_max              =   4.8190632413180E-03
(PID.TID 0000.0001) %MON pe_b_mean                    =  -8.3016794916860E-01
(PID.TID 0000.0001) %MON ke_max                       =   2.1270430423994E-04
(PID.TID 0000.0001) %MON ke_mean                      =   3.4791600420061E-07
(PID.TID 0000.0001) %MON ke_vol                       =   4.2724793099178E+12
(PID.TID 0000.0001) // =======================================================
(PID.TID 0000.0001) // End MONITOR dynamic field statistics
(PID.TID 0000.0001) // =======================================================
(PID.TID 0000.0001) // =======================================================
(PID.TID 0000.0001) // Begin OBCS MONITOR field statistics
(PID.TID 0000.0001) // =======================================================
(PID.TID 0000.0001) %MON obc_N_vVel_max               =   1.4676391144911E-05
(PID.TID 0000.0001) %MON obc_N_vVel_min               =   1.4676391144911E-05
(PID.TID 0000.0001) %MON obc_N_vVel_mean              =   1.4676391144911E-05
(PID.TID 0000.0001) %MON obc_N_vVel_sd                =   1.9023446532948E-12
(PID.TID 0000.0001) %MON obc_N_vVel_Int               =   9.6864181556415E+02
(PID.TID 0000.0001) // =======================================================
(PID.TID 0000.0001) // End OBCS MONITOR field statistics
(PID.TID 0000.0001) // =======================================================
 cg2d: Sum(rhs),rhsMax =   4.51029428406500E+00  2.99936028088949E+02
(PID.TID 0000.0001)      cg2d_init_res =   6.82913610335846E-06
(PID.TID 0000.0001)      cg2d_iters(min,last) =      -1      82
(PID.TID 0000.0001)      cg2d_last_res =   9.02183765279145E-12
(PID.TID 0000.0001) // =======================================================
(PID.TID 0000.0001) // Begin MONITOR dynamic field statistics
(PID.TID 0000.0001) // =======================================================
(PID.TID 0000.0001) %MON time_tsnumber                =                  1073
(PID.TID 0000.0001) %MON time_secondsf                =   1.0730000000000E+05
(PID.TID 0000.0001) %MON dynstat_eta_max              =   5.7987422871776E+00
(PID.TID 0000.0001) %MON dynstat_eta_min              =  -1.4198392681069E+01
(PID.TID 0000.0001) %MON dynstat_eta_mean             =  -2.5051847279162E+00
(PID.TID 0000.0001) %MON dynstat_eta_sd               =   4.9503460223136E+00
(PID.TID 0000.0001) %MON dynstat_eta_del2             =   2.0715213243162E-01
(PID.TID 0000.0001) %MON dynstat_uvel_max             =   5.4738794548790E-03
(PID.TID 0000.0001) %MON dynstat_uvel_min             =  -2.4446308931896E-02
(PID.TID 0000.0001) %MON dynstat_uvel_mean            =  -1.1272913299165E-07
(PID.TID 0000.0001) %MON dynstat_uvel_sd              =   7.2043772845551E-04
(PID.TID 0000.0001) %MON dynstat_uvel_del2            =   1.0575867760076E-06
(PID.TID 0000.0001) %MON dynstat_vvel_max             =   1.9221276067380E-02
(PID.TID 0000.0001) %MON dynstat_vvel_min             =  -7.8116943720108E-03
(PID.TID 0000.0001) %MON dynstat_vvel_mean            =   1.4838492478460E-05
(PID.TID 0000.0001) %MON dynstat_vvel_sd              =   4.3605428545339E-04
(PID.TID 0000.0001) %MON dynstat_vvel_del2            =   8.7208476031966E-07
(PID.TID 0000.0001) %MON dynstat_wvel_max             =   9.6628553971655E-04
(PID.TID 0000.0001) %MON dynstat_wvel_min             =  -9.3716785128108E-04
(PID.TID 0000.0001) %MON dynstat_wvel_mean            =   6.2866980183474E-09
(PID.TID 0000.0001) %MON dynstat_wvel_sd              =   1.8628488774649E-05
(PID.TID 0000.0001) %MON dynstat_wvel_del2            =   7.8878009391751E-08
(PID.TID 0000.0001) %MON dynstat_theta_max            =   1.2000000000000E+00
(PID.TID 0000.0001) %MON dynstat_theta_min            =  -1.0000000000000E+00
(PID.TID 0000.0001) %MON dynstat_theta_mean           =   5.6872120122042E-01
(PID.TID 0000.0001) %MON dynstat_theta_sd             =   8.6837740694820E-01
(PID.TID 0000.0001) %MON dynstat_theta_del2           =   2.8049478805963E-06
(PID.TID 0000.0001) %MON dynstat_salt_max             =   3.4700000000000E+01
(PID.TID 0000.0001) %MON dynstat_salt_min             =   3.4000000000000E+01
(PID.TID 0000.0001) %MON dynstat_salt_mean            =   3.4499102652842E+01
(PID.TID 0000.0001) %MON dynstat_salt_sd              =   2.7628848727408E-01
(PID.TID 0000.0001) %MON dynstat_salt_del2            =   1.1045406920684E-06
(PID.TID 0000.0001) %MON advcfl_uvel_max              =   2.4446308931896E-03
(PID.TID 0000.0001) %MON advcfl_vvel_max              =   1.9221276067380E-03
(PID.TID 0000.0001) %MON advcfl_wvel_max              =   4.8314276985828E-03
(PID.TID 0000.0001) %MON advcfl_W_hf_max              =   4.8314276985828E-03
(PID.TID 0000.0001) %MON pe_b_mean                    =  -8.3017023022329E-01
(PID.TID 0000.0001) %MON ke_max                       =   2.1389350127488E-04
(PID.TID 0000.0001) %MON ke_mean                      =   3.4954644375896E-07
(PID.TID 0000.0001) %MON ke_vol                       =   4.2724792561181E+12
(PID.TID 0000.0001) // =======================================================
(PID.TID 0000.0001) // End MONITOR dynamic field statistics
(PID.TID 0000.0001) // =======================================================
(PID.TID 0000.0001) // =======================================================
(PID.TID 0000.0001) // Begin OBCS MONITOR field statistics
(PID.TID 0000.0001) // =======================================================
(PID.TID 0000.0001) %MON obc_N_vVel_max               =   1.4628264080943E-05
(PID.TID 0000.0001) %MON obc_N_vVel_min               =   1.4628264080943E-05
(PID.TID 0000.0001) %MON obc_N_vVel_mean              =   1.4628264080943E-05
(PID.TID 0000.0001) %MON obc_N_vVel_sd                =  -9.8227697740672E-25
(PID.TID 0000.0001) %MON obc_N_vVel_Int               =   9.6546542934225E+02
(PID.TID 0000.0001) // =======================================================
(PID.TID 0000.0001) // End OBCS MONITOR field statistics
(PID.TID 0000.0001) // =======================================================
 cg2d: Sum(rhs),rhsMax =   4.51030944726647E+00  2.99936088408941E+02
(PID.TID 0000.0001)      cg2d_init_res =   6.80912257228451E-06
(PID.TID 0000.0001)      cg2d_iters(min,last) =      -1      82
(PID.TID 0000.0001)      cg2d_last_res =   9.04870639506313E-12
(PID.TID 0000.0001) // =======================================================
(PID.TID 0000.0001) // Begin MONITOR dynamic field statistics
(PID.TID 0000.0001) // =======================================================
(PID.TID 0000.0001) %MON time_tsnumber                =                  1074
(PID.TID 0000.0001) %MON time_secondsf                =   1.0740000000000E+05
(PID.TID 0000.0001) %MON dynstat_eta_max              =   5.7987221031741E+00
(PID.TID 0000.0001) %MON dynstat_eta_min              =  -1.4198407929990E+01
(PID.TID 0000.0001) %MON dynstat_eta_mean             =  -2.5051936539389E+00
(PID.TID 0000.0001) %MON dynstat_eta_sd               =   4.9503492323830E+00
(PID.TID 0000.0001) %MON dynstat_eta_del2             =   2.0715216318676E-01
(PID.TID 0000.0001) %MON dynstat_uvel_max             =   5.4873328659539E-03
(PID.TID 0000.0001) %MON dynstat_uvel_min             =  -2.4511197181710E-02
(PID.TID 0000.0001) %MON dynstat_uvel_mean            =  -1.1351836932385E-07
(PID.TID 0000.0001) %MON dynstat_uvel_sd              =   7.2220426828567E-04
(PID.TID 0000.0001) %MON dynstat_uvel_del2            =   1.0600742165466E-06
(PID.TID 0000.0001) %MON dynstat_vvel_max             =   1.9265633286271E-02
(PID.TID 0000.0001) %MON dynstat_vvel_min             =  -7.8326670309394E-03
(PID.TID 0000.0001) %MON dynstat_vvel_mean            =   1.4790205098910E-05
(PID.TID 0000.0001) %MON dynstat_vvel_sd              =   4.3694068168763E-04
(PID.TID 0000.0001) %MON dynstat_vvel_del2            =   8.7403925498980E-07
(PID.TID 0000.0001) %MON dynstat_wvel_max             =   9.6876229694919E-04
(PID.TID 0000.0001) %MON dynstat_wvel_min             =  -9.3950036845706E-04
(PID.TID 0000.0001) %MON dynstat_wvel_mean            =   6.2608836855384E-09
(PID.TID 0000.0001) %MON dynstat_wvel_sd              =   1.8724926280199E-05
(PID.TID 0000.0001) %MON dynstat_wvel_del2            =   7.9455526469495E-08
(PID.TID 0000.0001) %MON dynstat_theta_max            =   1.2000000000000E+00
(PID.TID 0000.0001) %MON dynstat_theta_min            =  -1.0000000000000E+00
(PID.TID 0000.0001) %MON dynstat_theta_mean           =   5.6872033263996E-01
(PID.TID 0000.0001) %MON dynstat_theta_sd             =   8.6837693798075E-01
(PID.TID 0000.0001) %MON dynstat_theta_del2           =   2.8102369849972E-06
(PID.TID 0000.0001) %MON dynstat_salt_max             =   3.4700000000000E+01
(PID.TID 0000.0001) %MON dynstat_salt_min             =   3.4000000000000E+01
(PID.TID 0000.0001) %MON dynstat_salt_mean            =   3.4499102305332E+01
(PID.TID 0000.0001) %MON dynstat_salt_sd              =   2.7628830679955E-01
(PID.TID 0000.0001) %MON dynstat_salt_del2            =   1.1067361069753E-06
(PID.TID 0000.0001) %MON advcfl_uvel_max              =   2.4511197181710E-03
(PID.TID 0000.0001) %MON advcfl_vvel_max              =   1.9265633286271E-03
(PID.TID 0000.0001) %MON advcfl_wvel_max              =   4.8438114847460E-03
(PID.TID 0000.0001) %MON advcfl_W_hf_max              =   4.8438114847460E-03
(PID.TID 0000.0001) %MON pe_b_mean                    =  -8.3017249443084E-01
(PID.TID 0000.0001) %MON ke_max                       =   2.1508842299092E-04
(PID.TID 0000.0001) %MON ke_mean                      =   3.5118160710103E-07
(PID.TID 0000.0001) %MON ke_vol                       =   4.2724792027162E+12
(PID.TID 0000.0001) // =======================================================
(PID.TID 0000.0001) // End MONITOR dynamic field statistics
(PID.TID 0000.0001) // =======================================================
(PID.TID 0000.0001) // =======================================================
(PID.TID 0000.0001) // Begin OBCS MONITOR field statistics
(PID.TID 0000.0001) // =======================================================
(PID.TID 0000.0001) %MON obc_N_vVel_max               =   1.4582619721150E-05
(PID.TID 0000.0001) %MON obc_N_vVel_min               =   1.4582619721150E-05
(PID.TID 0000.0001) %MON obc_N_vVel_mean              =   1.4582619721150E-05
(PID.TID 0000.0001) %MON obc_N_vVel_sd                =  -5.1181800401719E-24
(PID.TID 0000.0001) %MON obc_N_vVel_Int               =   9.6245290159593E+02
(PID.TID 0000.0001) // =======================================================
(PID.TID 0000.0001) // End OBCS MONITOR field statistics
(PID.TID 0000.0001) // =======================================================
 cg2d: Sum(rhs),rhsMax =   4.51032452035052E+00  2.99936147428725E+02
(PID.TID 0000.0001)      cg2d_init_res =   6.79261785255932E-06
(PID.TID 0000.0001)      cg2d_iters(min,last) =      -1      82
(PID.TID 0000.0001)      cg2d_last_res =   9.07142753573651E-12
(PID.TID 0000.0001) // =======================================================
(PID.TID 0000.0001) // Begin MONITOR dynamic field statistics
(PID.TID 0000.0001) // =======================================================
(PID.TID 0000.0001) %MON time_tsnumber                =                  1075
(PID.TID 0000.0001) %MON time_secondsf                =   1.0750000000000E+05
(PID.TID 0000.0001) %MON dynstat_eta_max              =   5.7987020133440E+00
(PID.TID 0000.0001) %MON dynstat_eta_min              =  -1.4198423089499E+01
(PID.TID 0000.0001) %MON dynstat_eta_mean             =  -2.5052025190505E+00
(PID.TID 0000.0001) %MON dynstat_eta_sd               =   4.9503524262404E+00
(PID.TID 0000.0001) %MON dynstat_eta_del2             =   2.0715219398631E-01
(PID.TID 0000.0001) %MON dynstat_uvel_max             =   5.5008116358550E-03
(PID.TID 0000.0001) %MON dynstat_uvel_min             =  -2.4576199634962E-02
(PID.TID 0000.0001) %MON dynstat_uvel_mean            =  -1.1412065743450E-07
(PID.TID 0000.0001) %MON dynstat_uvel_sd              =   7.2397428207888E-04
(PID.TID 0000.0001) %MON dynstat_uvel_del2            =   1.0625677163180E-06
(PID.TID 0000.0001) %MON dynstat_vvel_max             =   1.9310041134152E-02
(PID.TID 0000.0001) %MON dynstat_vvel_min             =  -7.8536901318262E-03
(PID.TID 0000.0001) %MON dynstat_vvel_mean            =   1.4745585076645E-05
(PID.TID 0000.0001) %MON dynstat_vvel_sd              =   4.3782259432074E-04
(PID.TID 0000.0001) %MON dynstat_vvel_del2            =   8.7598112540963E-07
(PID.TID 0000.0001) %MON dynstat_wvel_max             =   9.7124291538269E-04
(PID.TID 0000.0001) %MON dynstat_wvel_min             =  -9.4183663923471E-04
(PID.TID 0000.0001) %MON dynstat_wvel_mean            =   6.2430323117612E-09
(PID.TID 0000.0001) %MON dynstat_wvel_sd              =   1.8797391281248E-05
(PID.TID 0000.0001) %MON dynstat_wvel_del2            =   7.9978361620240E-08
(PID.TID 0000.0001) %MON dynstat_theta_max            =   1.2000000000000E+00
(PID.TID 0000.0001) %MON dynstat_theta_min            =  -1.0000000000000E+00
(PID.TID 0000.0001) %MON dynstat_theta_mean           =   5.6871946242026E-01
(PID.TID 0000.0001) %MON dynstat_theta_sd             =   8.6837646816647E-01
(PID.TID 0000.0001) %MON dynstat_theta_del2           =   2.8155736147655E-06
(PID.TID 0000.0001) %MON dynstat_salt_max             =   3.4700000000000E+01
(PID.TID 0000.0001) %MON dynstat_salt_min             =   3.4000000000000E+01
(PID.TID 0000.0001) %MON dynstat_salt_mean            =   3.4499101957167E+01
(PID.TID 0000.0001) %MON dynstat_salt_sd              =   2.7628812599567E-01
(PID.TID 0000.0001) %MON dynstat_salt_del2            =   1.1089457015310E-06
(PID.TID 0000.0001) %MON advcfl_uvel_max              =   2.4576199634962E-03
(PID.TID 0000.0001) %MON advcfl_vvel_max              =   1.9310041134152E-03
(PID.TID 0000.0001) %MON advcfl_wvel_max              =   4.8562145769134E-03
(PID.TID 0000.0001) %MON advcfl_W_hf_max              =   4.8562145769134E-03
(PID.TID 0000.0001) %MON pe_b_mean                    =  -8.3017474275706E-01
(PID.TID 0000.0001) %MON ke_max                       =   2.1628909048352E-04
(PID.TID 0000.0001) %MON ke_mean                      =   3.5282117330496E-07
(PID.TID 0000.0001) %MON ke_vol                       =   4.2724791496956E+12
(PID.TID 0000.0001) // =======================================================
(PID.TID 0000.0001) // End MONITOR dynamic field statistics
(PID.TID 0000.0001) // =======================================================
(PID.TID 0000.0001) // =======================================================
(PID.TID 0000.0001) // Begin OBCS MONITOR field statistics
(PID.TID 0000.0001) // =======================================================
(PID.TID 0000.0001) %MON obc_N_vVel_max               =   1.4539953674763E-05
(PID.TID 0000.0001) %MON obc_N_vVel_min               =   1.4539953674763E-05
(PID.TID 0000.0001) %MON obc_N_vVel_mean              =   1.4539953674763E-05
(PID.TID 0000.0001) %MON obc_N_vVel_sd                =   2.7284841053188E-12
(PID.TID 0000.0001) %MON obc_N_vVel_Int               =   9.5963694253433E+02
(PID.TID 0000.0001) // =======================================================
(PID.TID 0000.0001) // End OBCS MONITOR field statistics
(PID.TID 0000.0001) // =======================================================
 cg2d: Sum(rhs),rhsMax =   4.51033950761419E+00  2.99936205318645E+02
(PID.TID 0000.0001)      cg2d_init_res =   6.77981203713952E-06
(PID.TID 0000.0001)      cg2d_iters(min,last) =      -1      82
(PID.TID 0000.0001)      cg2d_last_res =   9.09063420514803E-12
(PID.TID 0000.0001) // =======================================================
(PID.TID 0000.0001) // Begin MONITOR dynamic field statistics
(PID.TID 0000.0001) // =======================================================
(PID.TID 0000.0001) %MON time_tsnumber                =                  1076
(PID.TID 0000.0001) %MON time_secondsf                =   1.0760000000000E+05
(PID.TID 0000.0001) %MON dynstat_eta_max              =   5.7986820074652E+00
(PID.TID 0000.0001) %MON dynstat_eta_min              =  -1.4198438165267E+01
(PID.TID 0000.0001) %MON dynstat_eta_mean             =  -2.5052113270603E+00
(PID.TID 0000.0001) %MON dynstat_eta_sd               =   4.9503556055652E+00
(PID.TID 0000.0001) %MON dynstat_eta_del2             =   2.0715222483196E-01
(PID.TID 0000.0001) %MON dynstat_uvel_max             =   5.5143157813085E-03
(PID.TID 0000.0001) %MON dynstat_uvel_min             =  -2.4641316346615E-02
(PID.TID 0000.0001) %MON dynstat_uvel_mean            =  -1.1451581564943E-07
(PID.TID 0000.0001) %MON dynstat_uvel_sd              =   7.2574778809600E-04
(PID.TID 0000.0001) %MON dynstat_uvel_del2            =   1.0650672851762E-06
(PID.TID 0000.0001) %MON dynstat_vvel_max             =   1.9354499517878E-02
(PID.TID 0000.0001) %MON dynstat_vvel_min             =  -7.8747636707632E-03
(PID.TID 0000.0001) %MON dynstat_vvel_mean            =   1.4705110323869E-05
(PID.TID 0000.0001) %MON dynstat_vvel_sd              =   4.3869951683649E-04
(PID.TID 0000.0001) %MON dynstat_vvel_del2            =   8.7790374268269E-07
(PID.TID 0000.0001) %MON dynstat_wvel_max             =   9.7372739026819E-04
(PID.TID 0000.0001) %MON dynstat_wvel_min             =  -9.4417666517672E-04
(PID.TID 0000.0001) %MON dynstat_wvel_mean            =   6.2332786734232E-09
(PID.TID 0000.0001) %MON dynstat_wvel_sd              =   1.8844410905479E-05
(PID.TID 0000.0001) %MON dynstat_wvel_del2            =   8.0430904534786E-08
(PID.TID 0000.0001) %MON dynstat_theta_max            =   1.2000000000000E+00
(PID.TID 0000.0001) %MON dynstat_theta_min            =  -1.0000000000000E+00
(PID.TID 0000.0001) %MON dynstat_theta_mean           =   5.6871859056255E-01
(PID.TID 0000.0001) %MON dynstat_theta_sd             =   8.6837599750673E-01
(PID.TID 0000.0001) %MON dynstat_theta_del2           =   2.8209649231893E-06
(PID.TID 0000.0001) %MON dynstat_salt_max             =   3.4700000000000E+01
(PID.TID 0000.0001) %MON dynstat_salt_min             =   3.4000000000000E+01
(PID.TID 0000.0001) %MON dynstat_salt_mean            =   3.4499101608349E+01
(PID.TID 0000.0001) %MON dynstat_salt_sd              =   2.7628794486283E-01
(PID.TID 0000.0001) %MON dynstat_salt_del2            =   1.1111717335102E-06
(PID.TID 0000.0001) %MON advcfl_uvel_max              =   2.4641316346615E-03
(PID.TID 0000.0001) %MON advcfl_vvel_max              =   1.9354499517878E-03
(PID.TID 0000.0001) %MON advcfl_wvel_max              =   4.8686369513409E-03
(PID.TID 0000.0001) %MON advcfl_W_hf_max              =   4.8686369513409E-03
(PID.TID 0000.0001) %MON pe_b_mean                    =  -8.3017697628695E-01
(PID.TID 0000.0001) %MON ke_max                       =   2.1749552606713E-04
(PID.TID 0000.0001) %MON ke_mean                      =   3.5446494587653E-07
(PID.TID 0000.0001) %MON ke_vol                       =   4.2724790970368E+12
(PID.TID 0000.0001) // =======================================================
(PID.TID 0000.0001) // End MONITOR dynamic field statistics
(PID.TID 0000.0001) // =======================================================
(PID.TID 0000.0001) // =======================================================
(PID.TID 0000.0001) // Begin OBCS MONITOR field statistics
(PID.TID 0000.0001) // =======================================================
(PID.TID 0000.0001) %MON obc_N_vVel_max               =   1.4500729478090E-05
(PID.TID 0000.0001) %MON obc_N_vVel_min               =   1.4500729478089E-05
(PID.TID 0000.0001) %MON obc_N_vVel_mean              =   1.4500729478090E-05
(PID.TID 0000.0001) %MON obc_N_vVel_sd                =  -1.1994118882019E-23
(PID.TID 0000.0001) %MON obc_N_vVel_Int               =   9.5704814555391E+02
(PID.TID 0000.0001) // =======================================================
(PID.TID 0000.0001) // End OBCS MONITOR field statistics
(PID.TID 0000.0001) // =======================================================
 cg2d: Sum(rhs),rhsMax =   4.51035441405202E+00  2.99936262258880E+02
(PID.TID 0000.0001)      cg2d_init_res =   6.77087154005124E-06
(PID.TID 0000.0001)      cg2d_iters(min,last) =      -1      82
(PID.TID 0000.0001)      cg2d_last_res =   9.10738001242392E-12
(PID.TID 0000.0001) // =======================================================
(PID.TID 0000.0001) // Begin MONITOR dynamic field statistics
(PID.TID 0000.0001) // =======================================================
(PID.TID 0000.0001) %MON time_tsnumber                =                  1077
(PID.TID 0000.0001) %MON time_secondsf                =   1.0770000000000E+05
(PID.TID 0000.0001) %MON dynstat_eta_max              =   5.7986620749652E+00
(PID.TID 0000.0001) %MON dynstat_eta_min              =  -1.4198453163652E+01
(PID.TID 0000.0001) %MON dynstat_eta_mean             =  -2.5052200822474E+00
(PID.TID 0000.0001) %MON dynstat_eta_sd               =   4.9503587721464E+00
(PID.TID 0000.0001) %MON dynstat_eta_del2             =   2.0715225572594E-01
(PID.TID 0000.0001) %MON dynstat_uvel_max             =   5.5278453095013E-03
(PID.TID 0000.0001) %MON dynstat_uvel_min             =  -2.4706547420136E-02
(PID.TID 0000.0001) %MON dynstat_uvel_mean            =  -1.1470899952713E-07
(PID.TID 0000.0001) %MON dynstat_uvel_sd              =   7.2752480423281E-04
(PID.TID 0000.0001) %MON dynstat_uvel_del2            =   1.0675729390796E-06
(PID.TID 0000.0001) %MON dynstat_vvel_max             =   1.9399008357635E-02
(PID.TID 0000.0001) %MON dynstat_vvel_min             =  -7.8958876909709E-03
(PID.TID 0000.0001) %MON dynstat_vvel_mean            =   1.4669211882593E-05
(PID.TID 0000.0001) %MON dynstat_vvel_sd              =   4.3957124947673E-04
(PID.TID 0000.0001) %MON dynstat_vvel_del2            =   8.7980173964063E-07
(PID.TID 0000.0001) %MON dynstat_wvel_max             =   9.7621571635858E-04
(PID.TID 0000.0001) %MON dynstat_wvel_min             =  -9.4652044388028E-04
(PID.TID 0000.0001) %MON dynstat_wvel_mean            =   6.2316924407515E-09
(PID.TID 0000.0001) %MON dynstat_wvel_sd              =   1.8865519141581E-05
(PID.TID 0000.0001) %MON dynstat_wvel_del2            =   8.0799929167400E-08
(PID.TID 0000.0001) %MON dynstat_theta_max            =   1.2000000000000E+00
(PID.TID 0000.0001) %MON dynstat_theta_min            =  -1.0000000000000E+00
(PID.TID 0000.0001) %MON dynstat_theta_mean           =   5.6871771706831E-01
(PID.TID 0000.0001) %MON dynstat_theta_sd             =   8.6837552599884E-01
(PID.TID 0000.0001) %MON dynstat_theta_del2           =   2.8264170664368E-06
(PID.TID 0000.0001) %MON dynstat_salt_max             =   3.4700000000000E+01
(PID.TID 0000.0001) %MON dynstat_salt_min             =   3.4000000000000E+01
(PID.TID 0000.0001) %MON dynstat_salt_mean            =   3.4499101258876E+01
(PID.TID 0000.0001) %MON dynstat_salt_sd              =   2.7628776340032E-01
(PID.TID 0000.0001) %MON dynstat_salt_del2            =   1.1134155756489E-06
(PID.TID 0000.0001) %MON advcfl_uvel_max              =   2.4706547420136E-03
(PID.TID 0000.0001) %MON advcfl_vvel_max              =   1.9399008357635E-03
(PID.TID 0000.0001) %MON advcfl_wvel_max              =   4.8810785817929E-03
(PID.TID 0000.0001) %MON advcfl_W_hf_max              =   4.8810785817929E-03
(PID.TID 0000.0001) %MON pe_b_mean                    =  -8.3017919621250E-01
(PID.TID 0000.0001) %MON ke_max                       =   2.1870775308425E-04
(PID.TID 0000.0001) %MON ke_mean                      =   3.5611286063783E-07
(PID.TID 0000.0001) %MON ke_vol                       =   4.2724790447173E+12
(PID.TID 0000.0001) // =======================================================
(PID.TID 0000.0001) // End MONITOR dynamic field statistics
(PID.TID 0000.0001) // =======================================================
(PID.TID 0000.0001) // =======================================================
(PID.TID 0000.0001) // Begin OBCS MONITOR field statistics
(PID.TID 0000.0001) // =======================================================
(PID.TID 0000.0001) %MON obc_N_vVel_max               =   1.4465371193209E-05
(PID.TID 0000.0001) %MON obc_N_vVel_min               =   1.4465371193209E-05
(PID.TID 0000.0001) %MON obc_N_vVel_mean              =   1.4465371193209E-05
(PID.TID 0000.0001) %MON obc_N_vVel_sd                =   2.9776403729804E-12
(PID.TID 0000.0001) %MON obc_N_vVel_Int               =   9.5471449875176E+02
(PID.TID 0000.0001) // =======================================================
(PID.TID 0000.0001) // End OBCS MONITOR field statistics
(PID.TID 0000.0001) // =======================================================
 cg2d: Sum(rhs),rhsMax =   4.51036924530959E+00  2.99936318436429E+02
(PID.TID 0000.0001)      cg2d_init_res =   6.76583311297720E-06
(PID.TID 0000.0001)      cg2d_iters(min,last) =      -1      82
(PID.TID 0000.0001)      cg2d_last_res =   9.12226759461220E-12
(PID.TID 0000.0001) // =======================================================
(PID.TID 0000.0001) // Begin MONITOR dynamic field statistics
(PID.TID 0000.0001) // =======================================================
(PID.TID 0000.0001) %MON time_tsnumber                =                  1078
(PID.TID 0000.0001) %MON time_secondsf                =   1.0780000000000E+05
(PID.TID 0000.0001) %MON dynstat_eta_max              =   5.7986422046042E+00
(PID.TID 0000.0001) %MON dynstat_eta_min              =  -1.4198468091765E+01
(PID.TID 0000.0001) %MON dynstat_eta_mean             =  -2.5052287893094E+00
(PID.TID 0000.0001) %MON dynstat_eta_sd               =   4.9503619278550E+00
(PID.TID 0000.0001) %MON dynstat_eta_del2             =   2.0715228667006E-01
(PID.TID 0000.0001) %MON dynstat_uvel_max             =   5.5414002230236E-03
(PID.TID 0000.0001) %MON dynstat_uvel_min             =  -2.4771892989716E-02
(PID.TID 0000.0001) %MON dynstat_uvel_mean            =  -1.1472672558154E-07
(PID.TID 0000.0001) %MON dynstat_uvel_sd              =   7.2930534797079E-04
(PID.TID 0000.0001) %MON dynstat_uvel_del2            =   1.0700846961221E-06
(PID.TID 0000.0001) %MON dynstat_vvel_max             =   1.9443567593832E-02
(PID.TID 0000.0001) %MON dynstat_vvel_min             =  -7.9170622726448E-03
(PID.TID 0000.0001) %MON dynstat_vvel_mean            =   1.4638268767239E-05
(PID.TID 0000.0001) %MON dynstat_vvel_sd              =   4.4043790166139E-04
(PID.TID 0000.0001) %MON dynstat_vvel_del2            =   8.8167117778105E-07
(PID.TID 0000.0001) %MON dynstat_wvel_max             =   9.7870788764871E-04
(PID.TID 0000.0001) %MON dynstat_wvel_min             =  -9.4886797006443E-04
(PID.TID 0000.0001) %MON dynstat_wvel_mean            =   6.2382668809033E-09
(PID.TID 0000.0001) %MON dynstat_wvel_sd              =   1.8861258254964E-05
(PID.TID 0000.0001) %MON dynstat_wvel_del2            =   8.1074965009823E-08
(PID.TID 0000.0001) %MON dynstat_theta_max            =   1.2000000000000E+00
(PID.TID 0000.0001) %MON dynstat_theta_min            =  -1.0000000000000E+00
(PID.TID 0000.0001) %MON dynstat_theta_mean           =   5.6871684193902E-01
(PID.TID 0000.0001) %MON dynstat_theta_sd             =   8.6837505363901E-01
(PID.TID 0000.0001) %MON dynstat_theta_del2           =   2.8319348782113E-06
(PID.TID 0000.0001) %MON dynstat_salt_max             =   3.4700000000000E+01
(PID.TID 0000.0001) %MON dynstat_salt_min             =   3.4000000000000E+01
(PID.TID 0000.0001) %MON dynstat_salt_mean            =   3.4499100908749E+01
(PID.TID 0000.0001) %MON dynstat_salt_sd              =   2.7628758160693E-01
(PID.TID 0000.0001) %MON dynstat_salt_del2            =   1.1156781330616E-06
(PID.TID 0000.0001) %MON advcfl_uvel_max              =   2.4771892989716E-03
(PID.TID 0000.0001) %MON advcfl_vvel_max              =   1.9443567593832E-03
(PID.TID 0000.0001) %MON advcfl_wvel_max              =   4.8935394382436E-03
(PID.TID 0000.0001) %MON advcfl_W_hf_max              =   4.8935394382436E-03
(PID.TID 0000.0001) %MON pe_b_mean                    =  -8.3018140381953E-01
(PID.TID 0000.0001) %MON ke_max                       =   2.1992579558154E-04
(PID.TID 0000.0001) %MON ke_mean                      =   3.5776498806279E-07
(PID.TID 0000.0001) %MON ke_vol                       =   4.2724789927115E+12
(PID.TID 0000.0001) // =======================================================
(PID.TID 0000.0001) // End MONITOR dynamic field statistics
(PID.TID 0000.0001) // =======================================================
(PID.TID 0000.0001) // =======================================================
(PID.TID 0000.0001) // Begin OBCS MONITOR field statistics
(PID.TID 0000.0001) // =======================================================
(PID.TID 0000.0001) %MON obc_N_vVel_max               =   1.4434257595952E-05
(PID.TID 0000.0001) %MON obc_N_vVel_min               =   1.4434257595951E-05
(PID.TID 0000.0001) %MON obc_N_vVel_mean              =   1.4434257595951E-05
(PID.TID 0000.0001) %MON obc_N_vVel_sd                =   3.1092882480101E-12
(PID.TID 0000.0001) %MON obc_N_vVel_Int               =   9.5266100133280E+02
(PID.TID 0000.0001) // =======================================================
(PID.TID 0000.0001) // End OBCS MONITOR field statistics
(PID.TID 0000.0001) // =======================================================
 cg2d: Sum(rhs),rhsMax =   4.51038400758777E+00  2.99936374045177E+02
(PID.TID 0000.0001)      cg2d_init_res =   6.76475146294167E-06
(PID.TID 0000.0001)      cg2d_iters(min,last) =      -1      82
(PID.TID 0000.0001)      cg2d_last_res =   9.13630141151256E-12
(PID.TID 0000.0001) // =======================================================
(PID.TID 0000.0001) // Begin MONITOR dynamic field statistics
(PID.TID 0000.0001) // =======================================================
(PID.TID 0000.0001) %MON time_tsnumber                =                  1079
(PID.TID 0000.0001) %MON time_secondsf                =   1.0790000000000E+05
(PID.TID 0000.0001) %MON dynstat_eta_max              =   5.7986223854419E+00
(PID.TID 0000.0001) %MON dynstat_eta_min              =  -1.4198482957572E+01
(PID.TID 0000.0001) %MON dynstat_eta_mean             =  -2.5052374533097E+00
(PID.TID 0000.0001) %MON dynstat_eta_sd               =   4.9503650746241E+00
(PID.TID 0000.0001) %MON dynstat_eta_del2             =   2.0715231766614E-01
(PID.TID 0000.0001) %MON dynstat_uvel_max             =   5.5549805258330E-03
(PID.TID 0000.0001) %MON dynstat_uvel_min             =  -2.4837353201616E-02
(PID.TID 0000.0001) %MON dynstat_uvel_mean            =  -1.1461134987767E-07
(PID.TID 0000.0001) %MON dynstat_uvel_sd              =   7.3108943644245E-04
(PID.TID 0000.0001) %MON dynstat_uvel_del2            =   1.0726025752451E-06
(PID.TID 0000.0001) %MON dynstat_vvel_max             =   1.9488177185440E-02
(PID.TID 0000.0001) %MON dynstat_vvel_min             =  -7.9382875228777E-03
(PID.TID 0000.0001) %MON dynstat_vvel_mean            =   1.4612603639218E-05
(PID.TID 0000.0001) %MON dynstat_vvel_sd              =   4.4129988089560E-04
(PID.TID 0000.0001) %MON dynstat_vvel_del2            =   8.8350966972242E-07
(PID.TID 0000.0001) %MON dynstat_wvel_max             =   9.8120389735774E-04
(PID.TID 0000.0001) %MON dynstat_wvel_min             =  -9.5121923650951E-04
(PID.TID 0000.0001) %MON dynstat_wvel_mean            =   6.2529149816250E-09
(PID.TID 0000.0001) %MON dynstat_wvel_sd              =   1.8833159072806E-05
(PID.TID 0000.0001) %MON dynstat_wvel_del2            =   8.1248678563812E-08
(PID.TID 0000.0001) %MON dynstat_theta_max            =   1.2000000000000E+00
(PID.TID 0000.0001) %MON dynstat_theta_min            =  -1.0000000000000E+00
(PID.TID 0000.0001) %MON dynstat_theta_mean           =   5.6871596517659E-01
(PID.TID 0000.0001) %MON dynstat_theta_sd             =   8.6837458041971E-01
(PID.TID 0000.0001) %MON dynstat_theta_del2           =   2.8375202462024E-06
(PID.TID 0000.0001) %MON dynstat_salt_max             =   3.4700000000000E+01
(PID.TID 0000.0001) %MON dynstat_salt_min             =   3.4000000000000E+01
(PID.TID 0000.0001) %MON dynstat_salt_mean            =   3.4499100557970E+01
(PID.TID 0000.0001) %MON dynstat_salt_sd              =   2.7628739948004E-01
(PID.TID 0000.0001) %MON dynstat_salt_del2            =   1.1179597521381E-06
(PID.TID 0000.0001) %MON advcfl_uvel_max              =   2.4837353201616E-03
(PID.TID 0000.0001) %MON advcfl_vvel_max              =   1.9488177185440E-03
(PID.TID 0000.0001) %MON advcfl_wvel_max              =   4.9060194867887E-03
(PID.TID 0000.0001) %MON advcfl_W_hf_max              =   4.9060194867887E-03
(PID.TID 0000.0001) %MON pe_b_mean                    =  -8.3018360047333E-01
(PID.TID 0000.0001) %MON ke_max                       =   2.2114967795537E-04
(PID.TID 0000.0001) %MON ke_mean                      =   3.5942152973240E-07
(PID.TID 0000.0001) %MON ke_vol                       =   4.2724789409915E+12
(PID.TID 0000.0001) // =======================================================
(PID.TID 0000.0001) // End MONITOR dynamic field statistics
(PID.TID 0000.0001) // =======================================================
(PID.TID 0000.0001) // =======================================================
(PID.TID 0000.0001) // Begin OBCS MONITOR field statistics
(PID.TID 0000.0001) // =======================================================
(PID.TID 0000.0001) %MON obc_N_vVel_max               =   1.4407716906058E-05
(PID.TID 0000.0001) %MON obc_N_vVel_min               =   1.4407716906058E-05
(PID.TID 0000.0001) %MON obc_N_vVel_mean              =   1.4407716906058E-05
(PID.TID 0000.0001) %MON obc_N_vVel_sd                =  -4.1617524569074E-24
(PID.TID 0000.0001) %MON obc_N_vVel_Int               =   9.5090931579983E+02
(PID.TID 0000.0001) // =======================================================
(PID.TID 0000.0001) // End OBCS MONITOR field statistics
(PID.TID 0000.0001) // =======================================================
 cg2d: Sum(rhs),rhsMax =   4.51039870759764E+00  2.99936429281803E+02
(PID.TID 0000.0001)      cg2d_init_res =   6.76766645495100E-06
(PID.TID 0000.0001)      cg2d_iters(min,last) =      -1      82
(PID.TID 0000.0001)      cg2d_last_res =   9.15047782879217E-12
(PID.TID 0000.0001) // =======================================================
(PID.TID 0000.0001) // Begin MONITOR dynamic field statistics
(PID.TID 0000.0001) // =======================================================
(PID.TID 0000.0001) %MON time_tsnumber                =                  1080
(PID.TID 0000.0001) %MON time_secondsf                =   1.0800000000000E+05
(PID.TID 0000.0001) %MON dynstat_eta_max              =   5.7986026067788E+00
(PID.TID 0000.0001) %MON dynstat_eta_min              =  -1.4198497769896E+01
(PID.TID 0000.0001) %MON dynstat_eta_mean             =  -2.5052460796187E+00
(PID.TID 0000.0001) %MON dynstat_eta_sd               =   4.9503682144262E+00
(PID.TID 0000.0001) %MON dynstat_eta_del2             =   2.0715234871612E-01
(PID.TID 0000.0001) %MON dynstat_uvel_max             =   5.5685862272519E-03
(PID.TID 0000.0001) %MON dynstat_uvel_min             =  -2.4902928198782E-02
(PID.TID 0000.0001) %MON dynstat_uvel_mean            =  -1.1441476312733E-07
(PID.TID 0000.0001) %MON dynstat_uvel_sd              =   7.3287708640714E-04
(PID.TID 0000.0001) %MON dynstat_uvel_del2            =   1.0751265974417E-06
(PID.TID 0000.0001) %MON dynstat_vvel_max             =   1.9532837104911E-02
(PID.TID 0000.0001) %MON dynstat_vvel_min             =  -7.9595635653043E-03
(PID.TID 0000.0001) %MON dynstat_vvel_mean            =   1.4592479345174E-05
(PID.TID 0000.0001) %MON dynstat_vvel_sd              =   4.4215786894704E-04
(PID.TID 0000.0001) %MON dynstat_vvel_del2            =   8.8531645003301E-07
(PID.TID 0000.0001) %MON dynstat_wvel_max             =   9.8370373799691E-04
(PID.TID 0000.0001) %MON dynstat_wvel_min             =  -9.5357423509933E-04
(PID.TID 0000.0001) %MON dynstat_wvel_mean            =   6.2754626143136E-09
(PID.TID 0000.0001) %MON dynstat_wvel_sd              =   1.8783698255558E-05
(PID.TID 0000.0001) %MON dynstat_wvel_del2            =   8.1317247509546E-08
(PID.TID 0000.0001) %MON dynstat_theta_max            =   1.2000000000000E+00
(PID.TID 0000.0001) %MON dynstat_theta_min            =  -1.0000000000000E+00
(PID.TID 0000.0001) %MON dynstat_theta_mean           =   5.6871508678334E-01
(PID.TID 0000.0001) %MON dynstat_theta_sd             =   8.6837410633851E-01
(PID.TID 0000.0001) %MON dynstat_theta_del2           =   2.8431728009943E-06
(PID.TID 0000.0001) %MON dynstat_salt_max             =   3.4700000000000E+01
(PID.TID 0000.0001) %MON dynstat_salt_min             =   3.4000000000000E+01
(PID.TID 0000.0001) %MON dynstat_salt_mean            =   3.4499100206538E+01
(PID.TID 0000.0001) %MON dynstat_salt_sd              =   2.7628721701889E-01
(PID.TID 0000.0001) %MON dynstat_salt_del2            =   1.1202601642113E-06
(PID.TID 0000.0001) %MON advcfl_uvel_max              =   2.4902928198782E-03
(PID.TID 0000.0001) %MON advcfl_vvel_max              =   1.9532837104911E-03
(PID.TID 0000.0001) %MON advcfl_wvel_max              =   4.9185186899845E-03
(PID.TID 0000.0001) %MON advcfl_W_hf_max              =   4.9185186899845E-03
(PID.TID 0000.0001) %MON pe_b_mean                    =  -8.3018578760287E-01
(PID.TID 0000.0001) %MON ke_max                       =   2.2237942465712E-04
(PID.TID 0000.0001) %MON ke_mean                      =   3.6108280902875E-07
(PID.TID 0000.0001) %MON ke_vol                       =   4.2724788895273E+12
(PID.TID 0000.0001) // =======================================================
(PID.TID 0000.0001) // End MONITOR dynamic field statistics
(PID.TID 0000.0001) // =======================================================
(PID.TID 0000.0001) // =======================================================
(PID.TID 0000.0001) // Begin OBCS MONITOR field statistics
(PID.TID 0000.0001) // =======================================================
(PID.TID 0000.0001) %MON obc_N_vVel_max               =   1.4386023266557E-05
(PID.TID 0000.0001) %MON obc_N_vVel_min               =   1.4386023266557E-05
(PID.TID 0000.0001) %MON obc_N_vVel_mean              =   1.4386023266557E-05
(PID.TID 0000.0001) %MON obc_N_vVel_sd                =   1.8818520126441E-12
(PID.TID 0000.0001) %MON obc_N_vVel_Int               =   9.4947753559273E+02
(PID.TID 0000.0001) // =======================================================
(PID.TID 0000.0001) // End OBCS MONITOR field statistics
(PID.TID 0000.0001) // =======================================================
 cg2d: Sum(rhs),rhsMax =   4.51041335246166E+00  2.99936484344517E+02
(PID.TID 0000.0001)      cg2d_init_res =   6.77457774333980E-06
(PID.TID 0000.0001)      cg2d_iters(min,last) =      -1      82
(PID.TID 0000.0001)      cg2d_last_res =   9.16555151543605E-12
(PID.TID 0000.0001) // =======================================================
(PID.TID 0000.0001) // Begin MONITOR dynamic field statistics
(PID.TID 0000.0001) // =======================================================
(PID.TID 0000.0001) %MON time_tsnumber                =                  1081
(PID.TID 0000.0001) %MON time_secondsf                =   1.0810000000000E+05
(PID.TID 0000.0001) %MON dynstat_eta_max              =   5.7985828582654E+00
(PID.TID 0000.0001) %MON dynstat_eta_min              =  -1.4198512538383E+01
(PID.TID 0000.0001) %MON dynstat_eta_mean             =  -2.5052546738480E+00
(PID.TID 0000.0001) %MON dynstat_eta_sd               =   4.9503713492526E+00
(PID.TID 0000.0001) %MON dynstat_eta_del2             =   2.0715237982192E-01
(PID.TID 0000.0001) %MON dynstat_uvel_max             =   5.5822173444469E-03
(PID.TID 0000.0001) %MON dynstat_uvel_min             =  -2.4968618111060E-02
(PID.TID 0000.0001) %MON dynstat_uvel_mean            =  -1.1419197708137E-07
(PID.TID 0000.0001) %MON dynstat_uvel_sd              =   7.3466831426859E-04
(PID.TID 0000.0001) %MON dynstat_uvel_del2            =   1.0776567859982E-06
(PID.TID 0000.0001) %MON dynstat_vvel_max             =   1.9577547328095E-02
(PID.TID 0000.0001) %MON dynstat_vvel_min             =  -7.9808905323606E-03
(PID.TID 0000.0001) %MON dynstat_vvel_mean            =   1.4578096266852E-05
(PID.TID 0000.0001) %MON dynstat_vvel_sd              =   4.4301278634441E-04
(PID.TID 0000.0001) %MON dynstat_vvel_del2            =   8.8709239176299E-07
(PID.TID 0000.0001) %MON dynstat_wvel_max             =   9.8620740163075E-04
(PID.TID 0000.0001) %MON dynstat_wvel_min             =  -9.5593295745986E-04
(PID.TID 0000.0001) %MON dynstat_wvel_mean            =   6.3056517369418E-09
(PID.TID 0000.0001) %MON dynstat_wvel_sd              =   1.8716229417684E-05
(PID.TID 0000.0001) %MON dynstat_wvel_del2            =   8.1280696292538E-08
(PID.TID 0000.0001) %MON dynstat_theta_max            =   1.2000000000000E+00
(PID.TID 0000.0001) %MON dynstat_theta_min            =  -1.0000000000000E+00
(PID.TID 0000.0001) %MON dynstat_theta_mean           =   5.6871420676171E-01
(PID.TID 0000.0001) %MON dynstat_theta_sd             =   8.6837363139590E-01
(PID.TID 0000.0001) %MON dynstat_theta_del2           =   2.8488896029500E-06
(PID.TID 0000.0001) %MON dynstat_salt_max             =   3.4700000000000E+01
(PID.TID 0000.0001) %MON dynstat_salt_min             =   3.4000000000000E+01
(PID.TID 0000.0001) %MON dynstat_salt_mean            =   3.4499099854453E+01
(PID.TID 0000.0001) %MON dynstat_salt_sd              =   2.7628703422365E-01
(PID.TID 0000.0001) %MON dynstat_salt_del2            =   1.1225785867744E-06
(PID.TID 0000.0001) %MON advcfl_uvel_max              =   2.4968618111060E-03
(PID.TID 0000.0001) %MON advcfl_vvel_max              =   1.9577547328095E-03
(PID.TID 0000.0001) %MON advcfl_wvel_max              =   4.9310370081537E-03
(PID.TID 0000.0001) %MON advcfl_W_hf_max              =   4.9310370081537E-03
(PID.TID 0000.0001) %MON pe_b_mean                    =  -8.3018796668367E-01
(PID.TID 0000.0001) %MON ke_max                       =   2.2361505999839E-04
(PID.TID 0000.0001) %MON ke_mean                      =   3.6274925655474E-07
(PID.TID 0000.0001) %MON ke_vol                       =   4.2724788382871E+12
(PID.TID 0000.0001) // =======================================================
(PID.TID 0000.0001) // End MONITOR dynamic field statistics
(PID.TID 0000.0001) // =======================================================
(PID.TID 0000.0001) // =======================================================
(PID.TID 0000.0001) // Begin OBCS MONITOR field statistics
(PID.TID 0000.0001) // =======================================================
(PID.TID 0000.0001) %MON obc_N_vVel_max               =   1.4369394017666E-05
(PID.TID 0000.0001) %MON obc_N_vVel_min               =   1.4369394017666E-05
(PID.TID 0000.0001) %MON obc_N_vVel_mean              =   1.4369394017666E-05
(PID.TID 0000.0001) %MON obc_N_vVel_sd                =   3.8519543400292E-12
(PID.TID 0000.0001) %MON obc_N_vVel_Int               =   9.4838000516597E+02
(PID.TID 0000.0001) // =======================================================
(PID.TID 0000.0001) // End OBCS MONITOR field statistics
(PID.TID 0000.0001) // =======================================================
 cg2d: Sum(rhs),rhsMax =   4.51042794962038E+00  2.99936539431402E+02
(PID.TID 0000.0001)      cg2d_init_res =   6.78547029430641E-06
(PID.TID 0000.0001)      cg2d_iters(min,last) =      -1      82
(PID.TID 0000.0001)      cg2d_last_res =   9.18206678677539E-12
(PID.TID 0000.0001) // =======================================================
(PID.TID 0000.0001) // Begin MONITOR dynamic field statistics
(PID.TID 0000.0001) // =======================================================
(PID.TID 0000.0001) %MON time_tsnumber                =                  1082
(PID.TID 0000.0001) %MON time_secondsf                =   1.0820000000000E+05
(PID.TID 0000.0001) %MON dynstat_eta_max              =   5.7985631299134E+00
(PID.TID 0000.0001) %MON dynstat_eta_min              =  -1.4198527273407E+01
(PID.TID 0000.0001) %MON dynstat_eta_mean             =  -2.5052632417848E+00
(PID.TID 0000.0001) %MON dynstat_eta_sd               =   4.9503744810935E+00
(PID.TID 0000.0001) %MON dynstat_eta_del2             =   2.0715241098545E-01
(PID.TID 0000.0001) %MON dynstat_uvel_max             =   5.5958739029229E-03
(PID.TID 0000.0001) %MON dynstat_uvel_min             =  -2.5034423050423E-02
(PID.TID 0000.0001) %MON dynstat_uvel_mean            =  -1.1399514071378E-07
(PID.TID 0000.0001) %MON dynstat_uvel_sd              =   7.3646313610226E-04
(PID.TID 0000.0001) %MON dynstat_uvel_del2            =   1.0801931667335E-06
(PID.TID 0000.0001) %MON dynstat_vvel_max             =   1.9622307822101E-02
(PID.TID 0000.0001) %MON dynstat_vvel_min             =  -8.0022685596735E-03
(PID.TID 0000.0001) %MON dynstat_vvel_mean            =   1.4569590474197E-05
(PID.TID 0000.0001) %MON dynstat_vvel_sd              =   4.4386574665163E-04
(PID.TID 0000.0001) %MON dynstat_vvel_del2            =   8.8883996054765E-07
(PID.TID 0000.0001) %MON dynstat_wvel_max             =   9.8871488016367E-04
(PID.TID 0000.0001) %MON dynstat_wvel_min             =  -9.5829539540415E-04
(PID.TID 0000.0001) %MON dynstat_wvel_mean            =   6.3431408196420E-09
(PID.TID 0000.0001) %MON dynstat_wvel_sd              =   1.8634883937194E-05
(PID.TID 0000.0001) %MON dynstat_wvel_del2            =   8.1143152654655E-08
(PID.TID 0000.0001) %MON dynstat_theta_max            =   1.2000000000000E+00
(PID.TID 0000.0001) %MON dynstat_theta_min            =  -1.0000000000000E+00
(PID.TID 0000.0001) %MON dynstat_theta_mean           =   5.6871332511400E-01
(PID.TID 0000.0001) %MON dynstat_theta_sd             =   8.6837315558994E-01
(PID.TID 0000.0001) %MON dynstat_theta_del2           =   2.8546661476801E-06
(PID.TID 0000.0001) %MON dynstat_salt_max             =   3.4700000000000E+01
(PID.TID 0000.0001) %MON dynstat_salt_min             =   3.4000000000000E+01
(PID.TID 0000.0001) %MON dynstat_salt_mean            =   3.4499099501718E+01
(PID.TID 0000.0001) %MON dynstat_salt_sd              =   2.7628685109344E-01
(PID.TID 0000.0001) %MON dynstat_salt_del2            =   1.1249136564692E-06
(PID.TID 0000.0001) %MON advcfl_uvel_max              =   2.5034423050423E-03
(PID.TID 0000.0001) %MON advcfl_vvel_max              =   1.9622307822101E-03
(PID.TID 0000.0001) %MON advcfl_wvel_max              =   4.9435744008183E-03
(PID.TID 0000.0001) %MON advcfl_W_hf_max              =   4.9435744008183E-03
(PID.TID 0000.0001) %MON pe_b_mean                    =  -8.3019013922078E-01
(PID.TID 0000.0001) %MON ke_max                       =   2.2485660804940E-04
(PID.TID 0000.0001) %MON ke_mean                      =   3.6442139083953E-07
(PID.TID 0000.0001) %MON ke_vol                       =   4.2724787872373E+12
(PID.TID 0000.0001) // =======================================================
(PID.TID 0000.0001) // End MONITOR dynamic field statistics
(PID.TID 0000.0001) // =======================================================
(PID.TID 0000.0001) // =======================================================
(PID.TID 0000.0001) // Begin OBCS MONITOR field statistics
(PID.TID 0000.0001) // =======================================================
(PID.TID 0000.0001) %MON obc_N_vVel_max               =   1.4357988391140E-05
(PID.TID 0000.0001) %MON obc_N_vVel_min               =   1.4357988391139E-05
(PID.TID 0000.0001) %MON obc_N_vVel_mean              =   1.4357988391140E-05
(PID.TID 0000.0001) %MON obc_N_vVel_sd                =  -7.2636797539813E-24
(PID.TID 0000.0001) %MON obc_N_vVel_Int               =   9.4762723381523E+02
(PID.TID 0000.0001) // =======================================================
(PID.TID 0000.0001) // End OBCS MONITOR field statistics
(PID.TID 0000.0001) // =======================================================
 cg2d: Sum(rhs),rhsMax =   4.51044250674763E+00  2.99936594738417E+02
(PID.TID 0000.0001)      cg2d_init_res =   6.80029123675222E-06
(PID.TID 0000.0001)      cg2d_iters(min,last) =      -1      82
(PID.TID 0000.0001)      cg2d_last_res =   9.20050610628879E-12
(PID.TID 0000.0001) // =======================================================
(PID.TID 0000.0001) // Begin MONITOR dynamic field statistics
(PID.TID 0000.0001) // =======================================================
(PID.TID 0000.0001) %MON time_tsnumber                =                  1083
(PID.TID 0000.0001) %MON time_secondsf                =   1.0830000000000E+05
(PID.TID 0000.0001) %MON dynstat_eta_max              =   5.7985434120968E+00
(PID.TID 0000.0001) %MON dynstat_eta_min              =  -1.4198541985880E+01
(PID.TID 0000.0001) %MON dynstat_eta_mean             =  -2.5052717893283E+00
(PID.TID 0000.0001) %MON dynstat_eta_sd               =   4.9503776119169E+00
(PID.TID 0000.0001) %MON dynstat_eta_del2             =   2.0715244220863E-01
(PID.TID 0000.0001) %MON dynstat_uvel_max             =   5.6095559361182E-03
(PID.TID 0000.0001) %MON dynstat_uvel_min             =  -2.5100343110029E-02
(PID.TID 0000.0001) %MON dynstat_uvel_mean            =  -1.1386845465926E-07
(PID.TID 0000.0001) %MON dynstat_uvel_sd              =   7.3826156771771E-04
(PID.TID 0000.0001) %MON dynstat_uvel_del2            =   1.0827357685376E-06
(PID.TID 0000.0001) %MON dynstat_vvel_max             =   1.9667118534013E-02
(PID.TID 0000.0001) %MON dynstat_vvel_min             =  -8.0236977829937E-03
(PID.TID 0000.0001) %MON dynstat_vvel_mean            =   1.4567032528462E-05
(PID.TID 0000.0001) %MON dynstat_vvel_sd              =   4.4471800239944E-04
(PID.TID 0000.0001) %MON dynstat_vvel_del2            =   8.9056309948208E-07
(PID.TID 0000.0001) %MON dynstat_wvel_max             =   9.9122616565256E-04
(PID.TID 0000.0001) %MON dynstat_wvel_min             =  -9.6066154115065E-04
(PID.TID 0000.0001) %MON dynstat_wvel_mean            =   6.3875075238932E-09
(PID.TID 0000.0001) %MON dynstat_wvel_sd              =   1.8544437139640E-05
(PID.TID 0000.0001) %MON dynstat_wvel_del2            =   8.0912979752923E-08
(PID.TID 0000.0001) %MON dynstat_theta_max            =   1.2000000000000E+00
(PID.TID 0000.0001) %MON dynstat_theta_min            =  -1.0000000000000E+00
(PID.TID 0000.0001) %MON dynstat_theta_mean           =   5.6871244184251E-01
(PID.TID 0000.0001) %MON dynstat_theta_sd             =   8.6837267891988E-01
(PID.TID 0000.0001) %MON dynstat_theta_del2           =   2.8604957675333E-06
(PID.TID 0000.0001) %MON dynstat_salt_max             =   3.4700000000000E+01
(PID.TID 0000.0001) %MON dynstat_salt_min             =   3.4000000000000E+01
(PID.TID 0000.0001) %MON dynstat_salt_mean            =   3.4499099148331E+01
(PID.TID 0000.0001) %MON dynstat_salt_sd              =   2.7628666762781E-01
(PID.TID 0000.0001) %MON dynstat_salt_del2            =   1.1272635185714E-06
(PID.TID 0000.0001) %MON advcfl_uvel_max              =   2.5100343110029E-03
(PID.TID 0000.0001) %MON advcfl_vvel_max              =   1.9667118534013E-03
(PID.TID 0000.0001) %MON advcfl_wvel_max              =   4.9561308282628E-03
(PID.TID 0000.0001) %MON advcfl_W_hf_max              =   4.9561308282628E-03
(PID.TID 0000.0001) %MON pe_b_mean                    =  -8.3019230673202E-01
(PID.TID 0000.0001) %MON ke_max                       =   2.2610409261086E-04
(PID.TID 0000.0001) %MON ke_mean                      =   3.6609979513065E-07
(PID.TID 0000.0001) %MON ke_vol                       =   4.2724787363438E+12
(PID.TID 0000.0001) // =======================================================
(PID.TID 0000.0001) // End MONITOR dynamic field statistics
(PID.TID 0000.0001) // =======================================================
(PID.TID 0000.0001) // =======================================================
(PID.TID 0000.0001) // Begin OBCS MONITOR field statistics
(PID.TID 0000.0001) // =======================================================
(PID.TID 0000.0001) %MON obc_N_vVel_max               =   1.4351906726441E-05
(PID.TID 0000.0001) %MON obc_N_vVel_min               =   1.4351906726441E-05
(PID.TID 0000.0001) %MON obc_N_vVel_mean              =   1.4351906726441E-05
(PID.TID 0000.0001) %MON obc_N_vVel_sd                =   3.0207343696899E-12
(PID.TID 0000.0001) %MON obc_N_vVel_Int               =   9.4722584394509E+02
(PID.TID 0000.0001) // =======================================================
(PID.TID 0000.0001) // End OBCS MONITOR field statistics
(PID.TID 0000.0001) // =======================================================
 cg2d: Sum(rhs),rhsMax =   4.51045703166605E+00  2.99936650457068E+02
(PID.TID 0000.0001)      cg2d_init_res =   6.81897608190955E-06
(PID.TID 0000.0001)      cg2d_iters(min,last) =      -1      82
(PID.TID 0000.0001)      cg2d_last_res =   9.22115029582108E-12
(PID.TID 0000.0001) // =======================================================
(PID.TID 0000.0001) // Begin MONITOR dynamic field statistics
(PID.TID 0000.0001) // =======================================================
(PID.TID 0000.0001) %MON time_tsnumber                =                  1084
(PID.TID 0000.0001) %MON time_secondsf                =   1.0840000000000E+05
(PID.TID 0000.0001) %MON dynstat_eta_max              =   5.7985236955421E+00
(PID.TID 0000.0001) %MON dynstat_eta_min              =  -1.4198556687036E+01
(PID.TID 0000.0001) %MON dynstat_eta_mean             =  -2.5052803224230E+00
(PID.TID 0000.0001) %MON dynstat_eta_sd               =   4.9503807436486E+00
(PID.TID 0000.0001) %MON dynstat_eta_del2             =   2.0715247349328E-01
(PID.TID 0000.0001) %MON dynstat_uvel_max             =   5.6232634845621E-03
(PID.TID 0000.0001) %MON dynstat_uvel_min             =  -2.5166378365117E-02
(PID.TID 0000.0001) %MON dynstat_uvel_mean            =  -1.1384429774410E-07
(PID.TID 0000.0001) %MON dynstat_uvel_sd              =   7.4006362471560E-04
(PID.TID 0000.0001) %MON dynstat_uvel_del2            =   1.0852846236167E-06
(PID.TID 0000.0001) %MON dynstat_vvel_max             =   1.9711979381911E-02
(PID.TID 0000.0001) %MON dynstat_vvel_min             =  -8.0451783370385E-03
(PID.TID 0000.0001) %MON dynstat_vvel_mean            =   1.4570426923217E-05
(PID.TID 0000.0001) %MON dynstat_vvel_sd              =   4.4557088496040E-04
(PID.TID 0000.0001) %MON dynstat_vvel_del2            =   8.9226704411284E-07
(PID.TID 0000.0001) %MON dynstat_wvel_max             =   9.9374125053784E-04
(PID.TID 0000.0001) %MON dynstat_wvel_min             =  -9.6303138732324E-04
(PID.TID 0000.0001) %MON dynstat_wvel_mean            =   6.4382573470860E-09
(PID.TID 0000.0001) %MON dynstat_wvel_sd              =   1.8450136757503E-05
(PID.TID 0000.0001) %MON dynstat_wvel_del2            =   8.0602737251167E-08
(PID.TID 0000.0001) %MON dynstat_theta_max            =   1.2000000000000E+00
(PID.TID 0000.0001) %MON dynstat_theta_min            =  -1.0000000000000E+00
(PID.TID 0000.0001) %MON dynstat_theta_mean           =   5.6871155694944E-01
(PID.TID 0000.0001) %MON dynstat_theta_sd             =   8.6837220138273E-01
(PID.TID 0000.0001) %MON dynstat_theta_del2           =   2.8663701689958E-06
(PID.TID 0000.0001) %MON dynstat_salt_max             =   3.4700000000000E+01
(PID.TID 0000.0001) %MON dynstat_salt_min             =   3.4000000000000E+01
(PID.TID 0000.0001) %MON dynstat_salt_mean            =   3.4499098794295E+01
(PID.TID 0000.0001) %MON dynstat_salt_sd              =   2.7628648382590E-01
(PID.TID 0000.0001) %MON dynstat_salt_del2            =   1.1296259058622E-06
(PID.TID 0000.0001) %MON advcfl_uvel_max              =   2.5166378365117E-03
(PID.TID 0000.0001) %MON advcfl_vvel_max              =   1.9711979381911E-03
(PID.TID 0000.0001) %MON advcfl_wvel_max              =   4.9687062526892E-03
(PID.TID 0000.0001) %MON advcfl_W_hf_max              =   4.9687062526892E-03
(PID.TID 0000.0001) %MON pe_b_mean                    =  -8.3019447073108E-01
(PID.TID 0000.0001) %MON ke_max                       =   2.2735753722414E-04
(PID.TID 0000.0001) %MON ke_mean                      =   3.6778509122107E-07
(PID.TID 0000.0001) %MON ke_vol                       =   4.2724786855714E+12
(PID.TID 0000.0001) // =======================================================
(PID.TID 0000.0001) // End MONITOR dynamic field statistics
(PID.TID 0000.0001) // =======================================================
(PID.TID 0000.0001) // =======================================================
(PID.TID 0000.0001) // Begin OBCS MONITOR field statistics
(PID.TID 0000.0001) // =======================================================
(PID.TID 0000.0001) %MON obc_N_vVel_max               =   1.4351189989285E-05
(PID.TID 0000.0001) %MON obc_N_vVel_min               =   1.4351189989284E-05
(PID.TID 0000.0001) %MON obc_N_vVel_mean              =   1.4351189989284E-05
(PID.TID 0000.0001) %MON obc_N_vVel_sd                =   2.3075907768298E-12
(PID.TID 0000.0001) %MON obc_N_vVel_Int               =   9.4717853929277E+02
(PID.TID 0000.0001) // =======================================================
(PID.TID 0000.0001) // End OBCS MONITOR field statistics
(PID.TID 0000.0001) // =======================================================
 cg2d: Sum(rhs),rhsMax =   4.51047153225675E+00  2.99936706772555E+02
(PID.TID 0000.0001)      cg2d_init_res =   6.84143926768712E-06
(PID.TID 0000.0001)      cg2d_iters(min,last) =      -1      82
(PID.TID 0000.0001)      cg2d_last_res =   9.24413653017705E-12
(PID.TID 0000.0001) // =======================================================
(PID.TID 0000.0001) // Begin MONITOR dynamic field statistics
(PID.TID 0000.0001) // =======================================================
(PID.TID 0000.0001) %MON time_tsnumber                =                  1085
(PID.TID 0000.0001) %MON time_secondsf                =   1.0850000000000E+05
(PID.TID 0000.0001) %MON dynstat_eta_max              =   5.7985039712754E+00
(PID.TID 0000.0001) %MON dynstat_eta_min              =  -1.4198571388170E+01
(PID.TID 0000.0001) %MON dynstat_eta_mean             =  -2.5052888469934E+00
(PID.TID 0000.0001) %MON dynstat_eta_sd               =   4.9503838781522E+00
(PID.TID 0000.0001) %MON dynstat_eta_del2             =   2.0715250484113E-01
(PID.TID 0000.0001) %MON dynstat_uvel_max             =   5.6369965950331E-03
(PID.TID 0000.0001) %MON dynstat_uvel_min             =  -2.5232528874494E-02
(PID.TID 0000.0001) %MON dynstat_uvel_mean            =  -1.1394081218446E-07
(PID.TID 0000.0001) %MON dynstat_uvel_sd              =   7.4186932254423E-04
(PID.TID 0000.0001) %MON dynstat_uvel_del2            =   1.0878397677636E-06
(PID.TID 0000.0001) %MON dynstat_vvel_max             =   1.9756890249810E-02
(PID.TID 0000.0001) %MON dynstat_vvel_min             =  -8.0667103551022E-03
(PID.TID 0000.0001) %MON dynstat_vvel_mean            =   1.4579712172738E-05
(PID.TID 0000.0001) %MON dynstat_vvel_sd              =   4.4642574099864E-04
(PID.TID 0000.0001) %MON dynstat_vvel_del2            =   8.9395806888554E-07
(PID.TID 0000.0001) %MON dynstat_wvel_max             =   9.9626012779726E-04
(PID.TID 0000.0001) %MON dynstat_wvel_min             =  -9.6540492700723E-04
(PID.TID 0000.0001) %MON dynstat_wvel_mean            =   6.4948257282008E-09
(PID.TID 0000.0001) %MON dynstat_wvel_sd              =   1.8357492825859E-05
(PID.TID 0000.0001) %MON dynstat_wvel_del2            =   8.0228927457307E-08
(PID.TID 0000.0001) %MON dynstat_theta_max            =   1.2000000000000E+00
(PID.TID 0000.0001) %MON dynstat_theta_min            =  -1.0000000000000E+00
(PID.TID 0000.0001) %MON dynstat_theta_mean           =   5.6871067043679E-01
(PID.TID 0000.0001) %MON dynstat_theta_sd             =   8.6837172297583E-01
(PID.TID 0000.0001) %MON dynstat_theta_del2           =   2.8722797525666E-06
(PID.TID 0000.0001) %MON dynstat_salt_max             =   3.4700000000000E+01
(PID.TID 0000.0001) %MON dynstat_salt_min             =   3.4000000000000E+01
(PID.TID 0000.0001) %MON dynstat_salt_mean            =   3.4499098439608E+01
(PID.TID 0000.0001) %MON dynstat_salt_sd              =   2.7628629968662E-01
(PID.TID 0000.0001) %MON dynstat_salt_del2            =   1.1319982005558E-06
(PID.TID 0000.0001) %MON advcfl_uvel_max              =   2.5232528874494E-03
(PID.TID 0000.0001) %MON advcfl_vvel_max              =   1.9756890249810E-03
(PID.TID 0000.0001) %MON advcfl_wvel_max              =   4.9813006389863E-03
(PID.TID 0000.0001) %MON advcfl_W_hf_max              =   4.9813006389863E-03
(PID.TID 0000.0001) %MON pe_b_mean                    =  -8.3019663271082E-01
(PID.TID 0000.0001) %MON ke_max                       =   2.2861696519256E-04
(PID.TID 0000.0001) %MON ke_mean                      =   3.6947791145942E-07
(PID.TID 0000.0001) %MON ke_vol                       =   4.2724786348848E+12
(PID.TID 0000.0001) // =======================================================
(PID.TID 0000.0001) // End MONITOR dynamic field statistics
(PID.TID 0000.0001) // =======================================================
(PID.TID 0000.0001) // =======================================================
(PID.TID 0000.0001) // Begin OBCS MONITOR field statistics
(PID.TID 0000.0001) // =======================================================
(PID.TID 0000.0001) %MON obc_N_vVel_max               =   1.4355820180296E-05
(PID.TID 0000.0001) %MON obc_N_vVel_min               =   1.4355820180296E-05
(PID.TID 0000.0001) %MON obc_N_vVel_mean              =   1.4355820180296E-05
(PID.TID 0000.0001) %MON obc_N_vVel_sd                =   2.1268859807003E-12
(PID.TID 0000.0001) %MON obc_N_vVel_Int               =   9.4748413189954E+02
(PID.TID 0000.0001) // =======================================================
(PID.TID 0000.0001) // End OBCS MONITOR field statistics
(PID.TID 0000.0001) // =======================================================
 cg2d: Sum(rhs),rhsMax =   4.51048601636786E+00  2.99936763861974E+02
(PID.TID 0000.0001)      cg2d_init_res =   6.86757048788736E-06
(PID.TID 0000.0001)      cg2d_iters(min,last) =      -1      82
(PID.TID 0000.0001)      cg2d_last_res =   9.26942753058999E-12
(PID.TID 0000.0001) // =======================================================
(PID.TID 0000.0001) // Begin MONITOR dynamic field statistics
(PID.TID 0000.0001) // =======================================================
(PID.TID 0000.0001) %MON time_tsnumber                =                  1086
(PID.TID 0000.0001) %MON time_secondsf                =   1.0860000000000E+05
(PID.TID 0000.0001) %MON dynstat_eta_max              =   5.7984842306006E+00
(PID.TID 0000.0001) %MON dynstat_eta_min              =  -1.4198586100368E+01
(PID.TID 0000.0001) %MON dynstat_eta_mean             =  -2.5052973688779E+00
(PID.TID 0000.0001) %MON dynstat_eta_sd               =   4.9503870172086E+00
(PID.TID 0000.0001) %MON dynstat_eta_del2             =   2.0715253625382E-01
(PID.TID 0000.0001) %MON dynstat_uvel_max             =   5.6507553204241E-03
(PID.TID 0000.0001) %MON dynstat_uvel_min             =  -2.5298794681397E-02
(PID.TID 0000.0001) %MON dynstat_uvel_mean            =  -1.1416105843719E-07
(PID.TID 0000.0001) %MON dynstat_uvel_sd              =   7.4367867656451E-04
(PID.TID 0000.0001) %MON dynstat_uvel_del2            =   1.0904012406444E-06
(PID.TID 0000.0001) %MON dynstat_vvel_max             =   1.9801850986132E-02
(PID.TID 0000.0001) %MON dynstat_vvel_min             =  -8.0882939696920E-03
(PID.TID 0000.0001) %MON dynstat_vvel_mean            =   1.4594761509813E-05
(PID.TID 0000.0001) %MON dynstat_vvel_sd              =   4.4728386833996E-04
(PID.TID 0000.0001) %MON dynstat_vvel_del2            =   8.9564317331602E-07
(PID.TID 0000.0001) %MON dynstat_wvel_max             =   9.9878279098825E-04
(PID.TID 0000.0001) %MON dynstat_wvel_min             =  -9.6778215363738E-04
(PID.TID 0000.0001) %MON dynstat_wvel_mean            =   6.5565844044802E-09
(PID.TID 0000.0001) %MON dynstat_wvel_sd              =   1.8272032109314E-05
(PID.TID 0000.0001) %MON dynstat_wvel_del2            =   7.9811491458764E-08
(PID.TID 0000.0001) %MON dynstat_theta_max            =   1.2000000000000E+00
(PID.TID 0000.0001) %MON dynstat_theta_min            =  -1.0000000000000E+00
(PID.TID 0000.0001) %MON dynstat_theta_mean           =   5.6870978230621E-01
(PID.TID 0000.0001) %MON dynstat_theta_sd             =   8.6837124369649E-01
(PID.TID 0000.0001) %MON dynstat_theta_del2           =   2.8782141493979E-06
(PID.TID 0000.0001) %MON dynstat_salt_max             =   3.4700000000000E+01
(PID.TID 0000.0001) %MON dynstat_salt_min             =   3.4000000000000E+01
(PID.TID 0000.0001) %MON dynstat_salt_mean            =   3.4499098084272E+01
(PID.TID 0000.0001) %MON dynstat_salt_sd              =   2.7628611520910E-01
(PID.TID 0000.0001) %MON dynstat_salt_del2            =   1.1343775344468E-06
(PID.TID 0000.0001) %MON advcfl_uvel_max              =   2.5298794681397E-03
(PID.TID 0000.0001) %MON advcfl_vvel_max              =   1.9801850986132E-03
(PID.TID 0000.0001) %MON advcfl_wvel_max              =   4.9939139549413E-03
(PID.TID 0000.0001) %MON advcfl_W_hf_max              =   4.9939139549413E-03
(PID.TID 0000.0001) %MON pe_b_mean                    =  -8.3019879412660E-01
(PID.TID 0000.0001) %MON ke_max                       =   2.2988239959466E-04
(PID.TID 0000.0001) %MON ke_mean                      =   3.7117887020247E-07
(PID.TID 0000.0001) %MON ke_vol                       =   4.2724785842489E+12
(PID.TID 0000.0001) // =======================================================
(PID.TID 0000.0001) // End MONITOR dynamic field statistics
(PID.TID 0000.0001) // =======================================================
(PID.TID 0000.0001) // =======================================================
(PID.TID 0000.0001) // Begin OBCS MONITOR field statistics
(PID.TID 0000.0001) // =======================================================
(PID.TID 0000.0001) %MON obc_N_vVel_max               =   1.4365720753008E-05
(PID.TID 0000.0001) %MON obc_N_vVel_min               =   1.4365720753008E-05
(PID.TID 0000.0001) %MON obc_N_vVel_mean              =   1.4365720753008E-05
(PID.TID 0000.0001) %MON obc_N_vVel_sd                =  -5.2732764050256E-24
(PID.TID 0000.0001) %MON obc_N_vVel_Int               =   9.4813756969854E+02
(PID.TID 0000.0001) // =======================================================
(PID.TID 0000.0001) // End OBCS MONITOR field statistics
(PID.TID 0000.0001) // =======================================================
 cg2d: Sum(rhs),rhsMax =   4.51050049173033E+00  2.99936821892473E+02
(PID.TID 0000.0001)      cg2d_init_res =   6.89723224796776E-06
(PID.TID 0000.0001)      cg2d_iters(min,last) =      -1      82
(PID.TID 0000.0001)      cg2d_last_res =   9.29678960085552E-12
(PID.TID 0000.0001) // =======================================================
(PID.TID 0000.0001) // Begin MONITOR dynamic field statistics
(PID.TID 0000.0001) // =======================================================
(PID.TID 0000.0001) %MON time_tsnumber                =                  1087
(PID.TID 0000.0001) %MON time_secondsf                =   1.0870000000000E+05
(PID.TID 0000.0001) %MON dynstat_eta_max              =   5.7984644650843E+00
(PID.TID 0000.0001) %MON dynstat_eta_min              =  -1.4198600834256E+01
(PID.TID 0000.0001) %MON dynstat_eta_mean             =  -2.5053058937667E+00
(PID.TID 0000.0001) %MON dynstat_eta_sd               =   4.9503901624993E+00
(PID.TID 0000.0001) %MON dynstat_eta_del2             =   2.0715256773281E-01
(PID.TID 0000.0001) %MON dynstat_uvel_max             =   5.6645397195965E-03
(PID.TID 0000.0001) %MON dynstat_uvel_min             =  -2.5365175814297E-02
(PID.TID 0000.0001) %MON dynstat_uvel_mean            =  -1.1449373582088E-07
(PID.TID 0000.0001) %MON dynstat_uvel_sd              =   7.4549170210480E-04
(PID.TID 0000.0001) %MON dynstat_uvel_del2            =   1.0929690860003E-06
(PID.TID 0000.0001) %MON dynstat_vvel_max             =   1.9846861406017E-02
(PID.TID 0000.0001) %MON dynstat_vvel_min             =  -8.1099293136262E-03
(PID.TID 0000.0001) %MON dynstat_vvel_mean            =   1.4615384188867E-05
(PID.TID 0000.0001) %MON dynstat_vvel_sd              =   4.4814645418565E-04
(PID.TID 0000.0001) %MON dynstat_vvel_del2            =   8.9732971995553E-07
(PID.TID 0000.0001) %MON dynstat_wvel_max             =   1.0013092342043E-03
(PID.TID 0000.0001) %MON dynstat_wvel_min             =  -9.7016306090590E-04
(PID.TID 0000.0001) %MON dynstat_wvel_mean            =   6.6228440122469E-09
(PID.TID 0000.0001) %MON dynstat_wvel_sd              =   1.8199025192907E-05
(PID.TID 0000.0001) %MON dynstat_wvel_del2            =   7.9373033170112E-08
(PID.TID 0000.0001) %MON dynstat_theta_max            =   1.2000000000000E+00
(PID.TID 0000.0001) %MON dynstat_theta_min            =  -1.0000000000000E+00
(PID.TID 0000.0001) %MON dynstat_theta_mean           =   5.6870889255919E-01
(PID.TID 0000.0001) %MON dynstat_theta_sd             =   8.6837076354256E-01
(PID.TID 0000.0001) %MON dynstat_theta_del2           =   2.8841626754531E-06
(PID.TID 0000.0001) %MON dynstat_salt_max             =   3.4700000000000E+01
(PID.TID 0000.0001) %MON dynstat_salt_min             =   3.4000000000000E+01
(PID.TID 0000.0001) %MON dynstat_salt_mean            =   3.4499097728286E+01
(PID.TID 0000.0001) %MON dynstat_salt_sd              =   2.7628593039258E-01
(PID.TID 0000.0001) %MON dynstat_salt_del2            =   1.1367612017047E-06
(PID.TID 0000.0001) %MON advcfl_uvel_max              =   2.5365175814297E-03
(PID.TID 0000.0001) %MON advcfl_vvel_max              =   1.9846861406017E-03
(PID.TID 0000.0001) %MON advcfl_wvel_max              =   5.0065461710214E-03
(PID.TID 0000.0001) %MON advcfl_W_hf_max              =   5.0065461710214E-03
(PID.TID 0000.0001) %MON pe_b_mean                    =  -8.3020095638075E-01
(PID.TID 0000.0001) %MON ke_max                       =   2.3115386329606E-04
(PID.TID 0000.0001) %MON ke_mean                      =   3.7288853600237E-07
(PID.TID 0000.0001) %MON ke_vol                       =   4.2724785336289E+12
(PID.TID 0000.0001) // =======================================================
(PID.TID 0000.0001) // End MONITOR dynamic field statistics
(PID.TID 0000.0001) // =======================================================
(PID.TID 0000.0001) // =======================================================
(PID.TID 0000.0001) // Begin OBCS MONITOR field statistics
(PID.TID 0000.0001) // =======================================================
(PID.TID 0000.0001) %MON obc_N_vVel_max               =   1.4380757592605E-05
(PID.TID 0000.0001) %MON obc_N_vVel_min               =   1.4380757592605E-05
(PID.TID 0000.0001) %MON obc_N_vVel_mean              =   1.4380757592605E-05
(PID.TID 0000.0001) %MON obc_N_vVel_sd                =   2.0273267296178E-12
(PID.TID 0000.0001) %MON obc_N_vVel_Int               =   9.4913000111192E+02
(PID.TID 0000.0001) // =======================================================
(PID.TID 0000.0001) // End OBCS MONITOR field statistics
(PID.TID 0000.0001) // =======================================================
 cg2d: Sum(rhs),rhsMax =   4.51051496586924E+00  2.99936881019573E+02
(PID.TID 0000.0001)      cg2d_init_res =   6.93027232496310E-06
(PID.TID 0000.0001)      cg2d_iters(min,last) =      -1      82
(PID.TID 0000.0001)      cg2d_last_res =   9.32585732077389E-12
(PID.TID 0000.0001) // =======================================================
(PID.TID 0000.0001) // Begin MONITOR dynamic field statistics
(PID.TID 0000.0001) // =======================================================
(PID.TID 0000.0001) %MON time_tsnumber                =                  1088
(PID.TID 0000.0001) %MON time_secondsf                =   1.0880000000000E+05
(PID.TID 0000.0001) %MON dynstat_eta_max              =   5.7984446664948E+00
(PID.TID 0000.0001) %MON dynstat_eta_min              =  -1.4198615599773E+01
(PID.TID 0000.0001) %MON dynstat_eta_mean             =  -2.5053144271388E+00
(PID.TID 0000.0001) %MON dynstat_eta_sd               =   4.9503933155894E+00
(PID.TID 0000.0001) %MON dynstat_eta_del2             =   2.0715259927955E-01
(PID.TID 0000.0001) %MON dynstat_uvel_max             =   5.6783498577282E-03
(PID.TID 0000.0001) %MON dynstat_uvel_min             =  -2.5431672287750E-02
(PID.TID 0000.0001) %MON dynstat_uvel_mean            =  -1.1491530860116E-07
(PID.TID 0000.0001) %MON dynstat_uvel_sd              =   7.4730841441560E-04
(PID.TID 0000.0001) %MON dynstat_uvel_del2            =   1.0955433513165E-06
(PID.TID 0000.0001) %MON dynstat_vvel_max             =   1.9891921295906E-02
(PID.TID 0000.0001) %MON dynstat_vvel_min             =  -8.1316165177832E-03
(PID.TID 0000.0001) %MON dynstat_vvel_mean            =   1.4641327389693E-05
(PID.TID 0000.0001) %MON dynstat_vvel_sd              =   4.4901451859794E-04
(PID.TID 0000.0001) %MON dynstat_vvel_del2            =   8.9902504139329E-07
(PID.TID 0000.0001) %MON dynstat_wvel_max             =   1.0038394519133E-03
(PID.TID 0000.0001) %MON dynstat_wvel_min             =  -9.7254764294591E-04
(PID.TID 0000.0001) %MON dynstat_wvel_mean            =   6.6928614658472E-09
(PID.TID 0000.0001) %MON dynstat_wvel_sd              =   1.8143200447113E-05
(PID.TID 0000.0001) %MON dynstat_wvel_del2            =   7.8937771761787E-08
(PID.TID 0000.0001) %MON dynstat_theta_max            =   1.2000000000000E+00
(PID.TID 0000.0001) %MON dynstat_theta_min            =  -1.0000000000000E+00
(PID.TID 0000.0001) %MON dynstat_theta_mean           =   5.6870800119690E-01
(PID.TID 0000.0001) %MON dynstat_theta_sd             =   8.6837028251112E-01
(PID.TID 0000.0001) %MON dynstat_theta_del2           =   2.8901149031044E-06
(PID.TID 0000.0001) %MON dynstat_salt_max             =   3.4700000000000E+01
(PID.TID 0000.0001) %MON dynstat_salt_min             =   3.4000000000000E+01
(PID.TID 0000.0001) %MON dynstat_salt_mean            =   3.4499097371652E+01
(PID.TID 0000.0001) %MON dynstat_salt_sd              =   2.7628574523605E-01
(PID.TID 0000.0001) %MON dynstat_salt_del2            =   1.1391464443448E-06
(PID.TID 0000.0001) %MON advcfl_uvel_max              =   2.5431672287750E-03
(PID.TID 0000.0001) %MON advcfl_vvel_max              =   1.9891921295906E-03
(PID.TID 0000.0001) %MON advcfl_wvel_max              =   5.0191972595667E-03
(PID.TID 0000.0001) %MON advcfl_W_hf_max              =   5.0191972595667E-03
(PID.TID 0000.0001) %MON pe_b_mean                    =  -8.3020312080678E-01
(PID.TID 0000.0001) %MON ke_max                       =   2.3243137896404E-04
(PID.TID 0000.0001) %MON ke_mean                      =   3.7460740578291E-07
(PID.TID 0000.0001) %MON ke_vol                       =   4.2724784829910E+12
(PID.TID 0000.0001) // =======================================================
(PID.TID 0000.0001) // End MONITOR dynamic field statistics
(PID.TID 0000.0001) // =======================================================
(PID.TID 0000.0001) // =======================================================
(PID.TID 0000.0001) // Begin OBCS MONITOR field statistics
(PID.TID 0000.0001) // =======================================================
(PID.TID 0000.0001) %MON obc_N_vVel_max               =   1.4400740108969E-05
(PID.TID 0000.0001) %MON obc_N_vVel_min               =   1.4400740108969E-05
(PID.TID 0000.0001) %MON obc_N_vVel_mean              =   1.4400740108969E-05
(PID.TID 0000.0001) %MON obc_N_vVel_sd                =   3.8686947680557E-12
(PID.TID 0000.0001) %MON obc_N_vVel_Int               =   9.5044884719193E+02
(PID.TID 0000.0001) // =======================================================
(PID.TID 0000.0001) // End OBCS MONITOR field statistics
(PID.TID 0000.0001) // =======================================================
 cg2d: Sum(rhs),rhsMax =   4.51052944601607E+00  2.99936941385605E+02
(PID.TID 0000.0001)      cg2d_init_res =   6.96647809457618E-06
(PID.TID 0000.0001)      cg2d_iters(min,last) =      -1      82
(PID.TID 0000.0001)      cg2d_last_res =   9.35597487758829E-12
(PID.TID 0000.0001) // =======================================================
(PID.TID 0000.0001) // Begin MONITOR dynamic field statistics
(PID.TID 0000.0001) // =======================================================
(PID.TID 0000.0001) %MON time_tsnumber                =                  1089
(PID.TID 0000.0001) %MON time_secondsf                =   1.0890000000000E+05
(PID.TID 0000.0001) %MON dynstat_eta_max              =   5.7984248268645E+00
(PID.TID 0000.0001) %MON dynstat_eta_min              =  -1.4198630405973E+01
(PID.TID 0000.0001) %MON dynstat_eta_mean             =  -2.5053229741996E+00
(PID.TID 0000.0001) %MON dynstat_eta_sd               =   4.9503964779088E+00
(PID.TID 0000.0001) %MON dynstat_eta_del2             =   2.0715263089535E-01
(PID.TID 0000.0001) %MON dynstat_uvel_max             =   5.6921858060299E-03
(PID.TID 0000.0001) %MON dynstat_uvel_min             =  -2.5498284104224E-02
(PID.TID 0000.0001) %MON dynstat_uvel_mean            =  -1.1539324801580E-07
(PID.TID 0000.0001) %MON dynstat_uvel_sd              =   7.4912882869222E-04
(PID.TID 0000.0001) %MON dynstat_uvel_del2            =   1.0981240878811E-06
(PID.TID 0000.0001) %MON dynstat_vvel_max             =   1.9937030419890E-02
(PID.TID 0000.0001) %MON dynstat_vvel_min             =  -8.1533557125137E-03
(PID.TID 0000.0001) %MON dynstat_vvel_mean            =   1.4672278785254E-05
(PID.TID 0000.0001) %MON dynstat_vvel_sd              =   4.4988886608443E-04
(PID.TID 0000.0001) %MON dynstat_vvel_del2            =   9.0073603952420E-07
(PID.TID 0000.0001) %MON dynstat_wvel_max             =   1.0063734388204E-03
(PID.TID 0000.0001) %MON dynstat_wvel_min             =  -9.7493589412567E-04
(PID.TID 0000.0001) %MON dynstat_wvel_mean            =   6.7658456445898E-09
(PID.TID 0000.0001) %MON dynstat_wvel_sd              =   1.8108464835208E-05
(PID.TID 0000.0001) %MON dynstat_wvel_del2            =   7.8530256651317E-08
(PID.TID 0000.0001) %MON dynstat_theta_max            =   1.2000000000000E+00
(PID.TID 0000.0001) %MON dynstat_theta_min            =  -1.0000000000000E+00
(PID.TID 0000.0001) %MON dynstat_theta_mean           =   5.6870710822007E-01
(PID.TID 0000.0001) %MON dynstat_theta_sd             =   8.6836980059602E-01
(PID.TID 0000.0001) %MON dynstat_theta_del2           =   2.8960611472546E-06
(PID.TID 0000.0001) %MON dynstat_salt_max             =   3.4700000000000E+01
(PID.TID 0000.0001) %MON dynstat_salt_min             =   3.4000000000000E+01
(PID.TID 0000.0001) %MON dynstat_salt_mean            =   3.4499097014369E+01
(PID.TID 0000.0001) %MON dynstat_salt_sd              =   2.7628555973755E-01
(PID.TID 0000.0001) %MON dynstat_salt_del2            =   1.1415307115672E-06
(PID.TID 0000.0001) %MON advcfl_uvel_max              =   2.5498284104223E-03
(PID.TID 0000.0001) %MON advcfl_vvel_max              =   1.9937030419890E-03
(PID.TID 0000.0001) %MON advcfl_wvel_max              =   5.0318671941021E-03
(PID.TID 0000.0001) %MON advcfl_W_hf_max              =   5.0318671941021E-03
(PID.TID 0000.0001) %MON pe_b_mean                    =  -8.3020528865425E-01
(PID.TID 0000.0001) %MON ke_max                       =   2.3371496910205E-04
(PID.TID 0000.0001) %MON ke_mean                      =   3.7633588242325E-07
(PID.TID 0000.0001) %MON ke_vol                       =   4.2724784323028E+12
(PID.TID 0000.0001) // =======================================================
(PID.TID 0000.0001) // End MONITOR dynamic field statistics
(PID.TID 0000.0001) // =======================================================
(PID.TID 0000.0001) // =======================================================
(PID.TID 0000.0001) // Begin OBCS MONITOR field statistics
(PID.TID 0000.0001) // =======================================================
(PID.TID 0000.0001) %MON obc_N_vVel_max               =   1.4425423061764E-05
(PID.TID 0000.0001) %MON obc_N_vVel_min               =   1.4425423061763E-05
(PID.TID 0000.0001) %MON obc_N_vVel_mean              =   1.4425423061763E-05
(PID.TID 0000.0001) %MON obc_N_vVel_sd                =   3.4595186786425E-12
(PID.TID 0000.0001) %MON obc_N_vVel_Int               =   9.5207792207638E+02
(PID.TID 0000.0001) // =======================================================
(PID.TID 0000.0001) // End OBCS MONITOR field statistics
(PID.TID 0000.0001) // =======================================================
 cg2d: Sum(rhs),rhsMax =   4.51054393902281E+00  2.99937003118607E+02
(PID.TID 0000.0001)      cg2d_init_res =   7.00560268749004E-06
(PID.TID 0000.0001)      cg2d_iters(min,last) =      -1      82
(PID.TID 0000.0001)      cg2d_last_res =   9.38637955075209E-12
(PID.TID 0000.0001) // =======================================================
(PID.TID 0000.0001) // Begin MONITOR dynamic field statistics
(PID.TID 0000.0001) // =======================================================
(PID.TID 0000.0001) %MON time_tsnumber                =                  1090
(PID.TID 0000.0001) %MON time_secondsf                =   1.0900000000000E+05
(PID.TID 0000.0001) %MON dynstat_eta_max              =   5.7984049385200E+00
(PID.TID 0000.0001) %MON dynstat_eta_min              =  -1.4198645260918E+01
(PID.TID 0000.0001) %MON dynstat_eta_mean             =  -2.5053315398246E+00
(PID.TID 0000.0001) %MON dynstat_eta_sd               =   4.9503996507355E+00
(PID.TID 0000.0001) %MON dynstat_eta_del2             =   2.0715266258129E-01
(PID.TID 0000.0001) %MON dynstat_uvel_max             =   5.7060476413895E-03
(PID.TID 0000.0001) %MON dynstat_uvel_min             =  -2.5565011257009E-02
(PID.TID 0000.0001) %MON dynstat_uvel_mean            =  -1.1588998873252E-07
(PID.TID 0000.0001) %MON dynstat_uvel_sd              =   7.5095296003783E-04
(PID.TID 0000.0001) %MON dynstat_uvel_del2            =   1.1007113504351E-06
(PID.TID 0000.0001) %MON dynstat_vvel_max             =   1.9982188525985E-02
(PID.TID 0000.0001) %MON dynstat_vvel_min             =  -8.1751470344749E-03
(PID.TID 0000.0001) %MON dynstat_vvel_mean            =   1.4707869755348E-05
(PID.TID 0000.0001) %MON dynstat_vvel_sd              =   4.5077004767041E-04
(PID.TID 0000.0001) %MON dynstat_vvel_del2            =   9.0246880033184E-07
(PID.TID 0000.0001) %MON dynstat_wvel_max             =   1.0089111897195E-03
(PID.TID 0000.0001) %MON dynstat_wvel_min             =  -9.7732780866534E-04
(PID.TID 0000.0001) %MON dynstat_wvel_mean            =   6.8409662985949E-09
(PID.TID 0000.0001) %MON dynstat_wvel_sd              =   1.8097655364703E-05
(PID.TID 0000.0001) %MON dynstat_wvel_del2            =   7.8173908892634E-08
(PID.TID 0000.0001) %MON dynstat_theta_max            =   1.2000000000000E+00
(PID.TID 0000.0001) %MON dynstat_theta_min            =  -1.0000000000000E+00
(PID.TID 0000.0001) %MON dynstat_theta_mean           =   5.6870621362912E-01
(PID.TID 0000.0001) %MON dynstat_theta_sd             =   8.6836931778991E-01
(PID.TID 0000.0001) %MON dynstat_theta_del2           =   2.9019930002112E-06
(PID.TID 0000.0001) %MON dynstat_salt_max             =   3.4700000000000E+01
(PID.TID 0000.0001) %MON dynstat_salt_min             =   3.4000000000000E+01
(PID.TID 0000.0001) %MON dynstat_salt_mean            =   3.4499096656437E+01
(PID.TID 0000.0001) %MON dynstat_salt_sd              =   2.7628537389468E-01
(PID.TID 0000.0001) %MON dynstat_salt_del2            =   1.1439117883360E-06
(PID.TID 0000.0001) %MON advcfl_uvel_max              =   2.5565011257009E-03
(PID.TID 0000.0001) %MON advcfl_vvel_max              =   1.9982188525985E-03
(PID.TID 0000.0001) %MON advcfl_wvel_max              =   5.0445559485975E-03
(PID.TID 0000.0001) %MON advcfl_W_hf_max              =   5.0445559485975E-03
(PID.TID 0000.0001) %MON pe_b_mean                    =  -8.3020746107473E-01
(PID.TID 0000.0001) %MON ke_max                       =   2.3500465610653E-04
(PID.TID 0000.0001) %MON ke_mean                      =   3.7807425677043E-07
(PID.TID 0000.0001) %MON ke_vol                       =   4.2724783815333E+12
(PID.TID 0000.0001) // =======================================================
(PID.TID 0000.0001) // End MONITOR dynamic field statistics
(PID.TID 0000.0001) // =======================================================
(PID.TID 0000.0001) // =======================================================
(PID.TID 0000.0001) // Begin OBCS MONITOR field statistics
(PID.TID 0000.0001) // =======================================================
(PID.TID 0000.0001) %MON obc_N_vVel_max               =   1.4454508769285E-05
(PID.TID 0000.0001) %MON obc_N_vVel_min               =   1.4454508769285E-05
(PID.TID 0000.0001) %MON obc_N_vVel_mean              =   1.4454508769285E-05
(PID.TID 0000.0001) %MON obc_N_vVel_sd                =   3.5444048235422E-12
(PID.TID 0000.0001) %MON obc_N_vVel_Int               =   9.5399757877280E+02
(PID.TID 0000.0001) // =======================================================
(PID.TID 0000.0001) // End OBCS MONITOR field statistics
(PID.TID 0000.0001) // =======================================================
 cg2d: Sum(rhs),rhsMax =   4.51055845099811E+00  2.99937066349665E+02
(PID.TID 0000.0001)      cg2d_init_res =   7.04734794215958E-06
(PID.TID 0000.0001)      cg2d_iters(min,last) =      -1      82
(PID.TID 0000.0001)      cg2d_last_res =   9.41621354712926E-12
(PID.TID 0000.0001) // =======================================================
(PID.TID 0000.0001) // Begin MONITOR dynamic field statistics
(PID.TID 0000.0001) // =======================================================
(PID.TID 0000.0001) %MON time_tsnumber                =                  1091
(PID.TID 0000.0001) %MON time_secondsf                =   1.0910000000000E+05
(PID.TID 0000.0001) %MON dynstat_eta_max              =   5.7983849941562E+00
(PID.TID 0000.0001) %MON dynstat_eta_min              =  -1.4198660171554E+01
(PID.TID 0000.0001) %MON dynstat_eta_mean             =  -2.5053401285020E+00
(PID.TID 0000.0001) %MON dynstat_eta_sd               =   4.9504028351848E+00
(PID.TID 0000.0001) %MON dynstat_eta_del2             =   2.0715269433847E-01
(PID.TID 0000.0001) %MON dynstat_uvel_max             =   5.7199354454909E-03
(PID.TID 0000.0001) %MON dynstat_uvel_min             =  -2.5631853734003E-02
(PID.TID 0000.0001) %MON dynstat_uvel_mean            =  -1.1636713117334E-07
(PID.TID 0000.0001) %MON dynstat_uvel_sd              =   7.5278082339511E-04
(PID.TID 0000.0001) %MON dynstat_uvel_del2            =   1.1033051966769E-06
(PID.TID 0000.0001) %MON dynstat_vvel_max             =   2.0027395352212E-02
(PID.TID 0000.0001) %MON dynstat_vvel_min             =  -8.1969906292692E-03
(PID.TID 0000.0001) %MON dynstat_vvel_mean            =   1.4747679211045E-05
(PID.TID 0000.0001) %MON dynstat_vvel_sd              =   4.5165833546834E-04
(PID.TID 0000.0001) %MON dynstat_vvel_del2            =   9.0422824959625E-07
(PID.TID 0000.0001) %MON dynstat_wvel_max             =   1.0114526992902E-03
(PID.TID 0000.0001) %MON dynstat_wvel_min             =  -9.7972338031759E-04
(PID.TID 0000.0001) %MON dynstat_wvel_mean            =   6.9173625254887E-09
(PID.TID 0000.0001) %MON dynstat_wvel_sd              =   1.8112346078435E-05
(PID.TID 0000.0001) %MON dynstat_wvel_del2            =   7.7889494649496E-08
(PID.TID 0000.0001) %MON dynstat_theta_max            =   1.2000000000000E+00
(PID.TID 0000.0001) %MON dynstat_theta_min            =  -1.0000000000000E+00
(PID.TID 0000.0001) %MON dynstat_theta_mean           =   5.6870531742386E-01
(PID.TID 0000.0001) %MON dynstat_theta_sd             =   8.6836883408829E-01
(PID.TID 0000.0001) %MON dynstat_theta_del2           =   2.9079036965156E-06
(PID.TID 0000.0001) %MON dynstat_salt_max             =   3.4700000000000E+01
(PID.TID 0000.0001) %MON dynstat_salt_min             =   3.4000000000000E+01
(PID.TID 0000.0001) %MON dynstat_salt_mean            =   3.4499096297855E+01
(PID.TID 0000.0001) %MON dynstat_salt_sd              =   2.7628518770599E-01
(PID.TID 0000.0001) %MON dynstat_salt_del2            =   1.1462879004503E-06
(PID.TID 0000.0001) %MON advcfl_uvel_max              =   2.5631853734003E-03
(PID.TID 0000.0001) %MON advcfl_vvel_max              =   2.0027395352212E-03
(PID.TID 0000.0001) %MON advcfl_wvel_max              =   5.0572634964510E-03
(PID.TID 0000.0001) %MON advcfl_W_hf_max              =   5.0572634964510E-03
(PID.TID 0000.0001) %MON pe_b_mean                    =  -8.3020963910836E-01
(PID.TID 0000.0001) %MON ke_max                       =   2.3630046234242E-04
(PID.TID 0000.0001) %MON ke_mean                      =   3.7982269506153E-07
(PID.TID 0000.0001) %MON ke_vol                       =   4.2724783306534E+12
(PID.TID 0000.0001) // =======================================================
(PID.TID 0000.0001) // End MONITOR dynamic field statistics
(PID.TID 0000.0001) // =======================================================
(PID.TID 0000.0001) // =======================================================
(PID.TID 0000.0001) // Begin OBCS MONITOR field statistics
(PID.TID 0000.0001) // =======================================================
(PID.TID 0000.0001) %MON obc_N_vVel_max               =   1.4487650049770E-05
(PID.TID 0000.0001) %MON obc_N_vVel_min               =   1.4487650049770E-05
(PID.TID 0000.0001) %MON obc_N_vVel_mean              =   1.4487650049770E-05
(PID.TID 0000.0001) %MON obc_N_vVel_sd                =  -7.8840652133960E-24
(PID.TID 0000.0001) %MON obc_N_vVel_Int               =   9.5618490328483E+02
(PID.TID 0000.0001) // =======================================================
(PID.TID 0000.0001) // End OBCS MONITOR field statistics
(PID.TID 0000.0001) // =======================================================
 cg2d: Sum(rhs),rhsMax =   4.51057298778212E+00  2.99937131175656E+02
(PID.TID 0000.0001)      cg2d_init_res =   7.09135335091441E-06
(PID.TID 0000.0001)      cg2d_iters(min,last) =      -1      82
(PID.TID 0000.0001)      cg2d_last_res =   9.44459336461255E-12
(PID.TID 0000.0001) // =======================================================
(PID.TID 0000.0001) // Begin MONITOR dynamic field statistics
(PID.TID 0000.0001) // =======================================================
(PID.TID 0000.0001) %MON time_tsnumber                =                  1092
(PID.TID 0000.0001) %MON time_secondsf                =   1.0920000000000E+05
(PID.TID 0000.0001) %MON dynstat_eta_max              =   5.7983649869584E+00
(PID.TID 0000.0001) %MON dynstat_eta_min              =  -1.4198675143699E+01
(PID.TID 0000.0001) %MON dynstat_eta_mean             =  -2.5053487442848E+00
(PID.TID 0000.0001) %MON dynstat_eta_sd               =   4.9504060321903E+00
(PID.TID 0000.0001) %MON dynstat_eta_del2             =   2.0715272616759E-01
(PID.TID 0000.0001) %MON dynstat_uvel_max             =   5.7338493033967E-03
(PID.TID 0000.0001) %MON dynstat_uvel_min             =  -2.5698811522374E-02
(PID.TID 0000.0001) %MON dynstat_uvel_mean            =  -1.1678943340682E-07
(PID.TID 0000.0001) %MON dynstat_uvel_sd              =   7.5461243344462E-04
(PID.TID 0000.0001) %MON dynstat_uvel_del2            =   1.1059056865567E-06
(PID.TID 0000.0001) %MON dynstat_vvel_max             =   2.0072650631702E-02
(PID.TID 0000.0001) %MON dynstat_vvel_min             =  -8.2188866541451E-03
(PID.TID 0000.0001) %MON dynstat_vvel_mean            =   1.4791238047441E-05
(PID.TID 0000.0001) %MON dynstat_vvel_sd              =   4.5255371116463E-04
(PID.TID 0000.0001) %MON dynstat_vvel_del2            =   9.0601787383963E-07
(PID.TID 0000.0001) %MON dynstat_wvel_max             =   1.0139979620285E-03
(PID.TID 0000.0001) %MON dynstat_wvel_min             =  -9.8212260221489E-04
(PID.TID 0000.0001) %MON dynstat_wvel_mean            =   6.9941551078176E-09
(PID.TID 0000.0001) %MON dynstat_wvel_sd              =   1.8152732399868E-05
(PID.TID 0000.0001) %MON dynstat_wvel_del2            =   7.7693666892608E-08
(PID.TID 0000.0001) %MON dynstat_theta_max            =   1.2000000000000E+00
(PID.TID 0000.0001) %MON dynstat_theta_min            =  -1.0000000000000E+00
(PID.TID 0000.0001) %MON dynstat_theta_mean           =   5.6870441960385E-01
(PID.TID 0000.0001) %MON dynstat_theta_sd             =   8.6836834948851E-01
(PID.TID 0000.0001) %MON dynstat_theta_del2           =   2.9137885940411E-06
(PID.TID 0000.0001) %MON dynstat_salt_max             =   3.4700000000000E+01
(PID.TID 0000.0001) %MON dynstat_salt_min             =   3.4000000000000E+01
(PID.TID 0000.0001) %MON dynstat_salt_mean            =   3.4499095938624E+01
(PID.TID 0000.0001) %MON dynstat_salt_sd              =   2.7628500117066E-01
(PID.TID 0000.0001) %MON dynstat_salt_del2            =   1.1486578066213E-06
(PID.TID 0000.0001) %MON advcfl_uvel_max              =   2.5698811522374E-03
(PID.TID 0000.0001) %MON advcfl_vvel_max              =   2.0072650631702E-03
(PID.TID 0000.0001) %MON advcfl_wvel_max              =   5.0699898101423E-03
(PID.TID 0000.0001) %MON advcfl_W_hf_max              =   5.0699898101423E-03
(PID.TID 0000.0001) %MON pe_b_mean                    =  -8.3021182367229E-01
(PID.TID 0000.0001) %MON ke_max                       =   2.3760241023628E-04
(PID.TID 0000.0001) %MON ke_mean                      =   3.8158123246544E-07
(PID.TID 0000.0001) %MON ke_vol                       =   4.2724782796367E+12
(PID.TID 0000.0001) // =======================================================
(PID.TID 0000.0001) // End MONITOR dynamic field statistics
(PID.TID 0000.0001) // =======================================================
(PID.TID 0000.0001) // =======================================================
(PID.TID 0000.0001) // Begin OBCS MONITOR field statistics
(PID.TID 0000.0001) // =======================================================
(PID.TID 0000.0001) %MON obc_N_vVel_max               =   1.4524453617858E-05
(PID.TID 0000.0001) %MON obc_N_vVel_min               =   1.4524453617858E-05
(PID.TID 0000.0001) %MON obc_N_vVel_mean              =   1.4524453617858E-05
(PID.TID 0000.0001) %MON obc_N_vVel_sd                =  -3.2311742677853E-24
(PID.TID 0000.0001) %MON obc_N_vVel_Int               =   9.5861393877862E+02
(PID.TID 0000.0001) // =======================================================
(PID.TID 0000.0001) // End OBCS MONITOR field statistics
(PID.TID 0000.0001) // =======================================================
 cg2d: Sum(rhs),rhsMax =   4.51058755462926E+00  2.99937197674576E+02
(PID.TID 0000.0001)      cg2d_init_res =   7.13721720450173E-06
(PID.TID 0000.0001)      cg2d_iters(min,last) =      -1      82
(PID.TID 0000.0001)      cg2d_last_res =   9.47075475855044E-12
(PID.TID 0000.0001) // =======================================================
(PID.TID 0000.0001) // Begin MONITOR dynamic field statistics
(PID.TID 0000.0001) // =======================================================
(PID.TID 0000.0001) %MON time_tsnumber                =                  1093
(PID.TID 0000.0001) %MON time_secondsf                =   1.0930000000000E+05
(PID.TID 0000.0001) %MON dynstat_eta_max              =   5.7983449107397E+00
(PID.TID 0000.0001) %MON dynstat_eta_min              =  -1.4198690182025E+01
(PID.TID 0000.0001) %MON dynstat_eta_mean             =  -2.5053573907432E+00
(PID.TID 0000.0001) %MON dynstat_eta_sd               =   4.9504092424942E+00
(PID.TID 0000.0001) %MON dynstat_eta_del2             =   2.0715275806905E-01
(PID.TID 0000.0001) %MON dynstat_uvel_max             =   5.7477893021805E-03
(PID.TID 0000.0001) %MON dynstat_uvel_min             =  -2.5765884613021E-02
(PID.TID 0000.0001) %MON dynstat_uvel_mean            =  -1.1712816178412E-07
(PID.TID 0000.0001) %MON dynstat_uvel_sd              =   7.5644780447537E-04
(PID.TID 0000.0001) %MON dynstat_uvel_del2            =   1.1085128813457E-06
(PID.TID 0000.0001) %MON dynstat_vvel_max             =   2.0117954096390E-02
(PID.TID 0000.0001) %MON dynstat_vvel_min             =  -8.2408352801693E-03
(PID.TID 0000.0001) %MON dynstat_vvel_mean            =   1.4838034201735E-05
(PID.TID 0000.0001) %MON dynstat_vvel_sd              =   4.5345586913159E-04
(PID.TID 0000.0001) %MON dynstat_vvel_del2            =   9.0783952683266E-07
(PID.TID 0000.0001) %MON dynstat_wvel_max             =   1.0165469721483E-03
(PID.TID 0000.0001) %MON dynstat_wvel_min             =  -9.8452546653748E-04
(PID.TID 0000.0001) %MON dynstat_wvel_mean            =   7.0704565582929E-09
(PID.TID 0000.0001) %MON dynstat_wvel_sd              =   1.8217607539339E-05
(PID.TID 0000.0001) %MON dynstat_wvel_del2            =   7.7597728246759E-08
(PID.TID 0000.0001) %MON dynstat_theta_max            =   1.2000000000000E+00
(PID.TID 0000.0001) %MON dynstat_theta_min            =  -1.0000000000000E+00
(PID.TID 0000.0001) %MON dynstat_theta_mean           =   5.6870352016832E-01
(PID.TID 0000.0001) %MON dynstat_theta_sd             =   8.6836786398606E-01
(PID.TID 0000.0001) %MON dynstat_theta_del2           =   2.9196450410649E-06
(PID.TID 0000.0001) %MON dynstat_salt_max             =   3.4700000000000E+01
(PID.TID 0000.0001) %MON dynstat_salt_min             =   3.4000000000000E+01
(PID.TID 0000.0001) %MON dynstat_salt_mean            =   3.4499095578744E+01
(PID.TID 0000.0001) %MON dynstat_salt_sd              =   2.7628481428706E-01
(PID.TID 0000.0001) %MON dynstat_salt_del2            =   1.1510208508233E-06
(PID.TID 0000.0001) %MON advcfl_uvel_max              =   2.5765884613021E-03
(PID.TID 0000.0001) %MON advcfl_vvel_max              =   2.0117954096390E-03
(PID.TID 0000.0001) %MON advcfl_wvel_max              =   5.0827348607416E-03
(PID.TID 0000.0001) %MON advcfl_W_hf_max              =   5.0827348607416E-03
(PID.TID 0000.0001) %MON pe_b_mean                    =  -8.3021401554972E-01
(PID.TID 0000.0001) %MON ke_max                       =   2.3891052236731E-04
(PID.TID 0000.0001) %MON ke_mean                      =   3.8334977315198E-07
(PID.TID 0000.0001) %MON ke_vol                       =   4.2724782284589E+12
(PID.TID 0000.0001) // =======================================================
(PID.TID 0000.0001) // End MONITOR dynamic field statistics
(PID.TID 0000.0001) // =======================================================
(PID.TID 0000.0001) // =======================================================
(PID.TID 0000.0001) // Begin OBCS MONITOR field statistics
(PID.TID 0000.0001) // =======================================================
(PID.TID 0000.0001) %MON obc_N_vVel_max               =   1.4564484327528E-05
(PID.TID 0000.0001) %MON obc_N_vVel_min               =   1.4564484327528E-05
(PID.TID 0000.0001) %MON obc_N_vVel_mean              =   1.4564484327528E-05
(PID.TID 0000.0001) %MON obc_N_vVel_sd                =   3.1258712362768E-12
(PID.TID 0000.0001) %MON obc_N_vVel_Int               =   9.6125596561684E+02
(PID.TID 0000.0001) // =======================================================
(PID.TID 0000.0001) // End OBCS MONITOR field statistics
(PID.TID 0000.0001) // =======================================================
 cg2d: Sum(rhs),rhsMax =   4.51060215612612E+00  2.99937265906092E+02
(PID.TID 0000.0001)      cg2d_init_res =   7.18447943179918E-06
(PID.TID 0000.0001)      cg2d_iters(min,last) =      -1      82
(PID.TID 0000.0001)      cg2d_last_res =   9.49408536453211E-12
(PID.TID 0000.0001) // =======================================================
(PID.TID 0000.0001) // Begin MONITOR dynamic field statistics
(PID.TID 0000.0001) // =======================================================
(PID.TID 0000.0001) %MON time_tsnumber                =                  1094
(PID.TID 0000.0001) %MON time_secondsf                =   1.0940000000000E+05
(PID.TID 0000.0001) %MON dynstat_eta_max              =   5.7983247601051E+00
(PID.TID 0000.0001) %MON dynstat_eta_min              =  -1.4198705290079E+01
(PID.TID 0000.0001) %MON dynstat_eta_mean             =  -2.5053660709233E+00
(PID.TID 0000.0001) %MON dynstat_eta_sd               =   4.9504124666395E+00
(PID.TID 0000.0001) %MON dynstat_eta_del2             =   2.0715279004313E-01
(PID.TID 0000.0001) %MON dynstat_uvel_max             =   5.7617555294556E-03
(PID.TID 0000.0001) %MON dynstat_uvel_min             =  -2.5833073004755E-02
(PID.TID 0000.0001) %MON dynstat_uvel_mean            =  -1.1736346700475E-07
(PID.TID 0000.0001) %MON dynstat_uvel_sd              =   7.5828695022945E-04
(PID.TID 0000.0001) %MON dynstat_uvel_del2            =   1.1111268427776E-06
(PID.TID 0000.0001) %MON dynstat_vvel_max             =   2.0163305479406E-02
(PID.TID 0000.0001) %MON dynstat_vvel_min             =  -8.2628366934667E-03
(PID.TID 0000.0001) %MON dynstat_vvel_mean            =   1.4887518258943E-05
(PID.TID 0000.0001) %MON dynstat_vvel_sd              =   4.5436423415115E-04
(PID.TID 0000.0001) %MON dynstat_vvel_del2            =   9.0969333750337E-07
(PID.TID 0000.0001) %MON dynstat_wvel_max             =   1.0190997235534E-03
(PID.TID 0000.0001) %MON dynstat_wvel_min             =  -9.8693196440914E-04
(PID.TID 0000.0001) %MON dynstat_wvel_mean            =   7.1453836547100E-09
(PID.TID 0000.0001) %MON dynstat_wvel_sd              =   1.8304435550346E-05
(PID.TID 0000.0001) %MON dynstat_wvel_del2            =   7.7606762043864E-08
(PID.TID 0000.0001) %MON dynstat_theta_max            =   1.2000000000000E+00
(PID.TID 0000.0001) %MON dynstat_theta_min            =  -1.0000000000000E+00
(PID.TID 0000.0001) %MON dynstat_theta_mean           =   5.6870261911609E-01
(PID.TID 0000.0001) %MON dynstat_theta_sd             =   8.6836737757412E-01
(PID.TID 0000.0001) %MON dynstat_theta_del2           =   2.9254728205105E-06
(PID.TID 0000.0001) %MON dynstat_salt_max             =   3.4700000000000E+01
(PID.TID 0000.0001) %MON dynstat_salt_min             =   3.4000000000000E+01
(PID.TID 0000.0001) %MON dynstat_salt_mean            =   3.4499095218213E+01
(PID.TID 0000.0001) %MON dynstat_salt_sd              =   2.7628462705310E-01
(PID.TID 0000.0001) %MON dynstat_salt_del2            =   1.1533769882167E-06
(PID.TID 0000.0001) %MON advcfl_uvel_max              =   2.5833073004755E-03
(PID.TID 0000.0001) %MON advcfl_vvel_max              =   2.0163305479406E-03
(PID.TID 0000.0001) %MON advcfl_wvel_max              =   5.0954986177670E-03
(PID.TID 0000.0001) %MON advcfl_W_hf_max              =   5.0954986177670E-03
(PID.TID 0000.0001) %MON pe_b_mean                    =  -8.3021621538097E-01
(PID.TID 0000.0001) %MON ke_max                       =   2.4022482155299E-04
(PID.TID 0000.0001) %MON ke_mean                      =   3.8512809697577E-07
(PID.TID 0000.0001) %MON ke_vol                       =   4.2724781770990E+12
(PID.TID 0000.0001) // =======================================================
(PID.TID 0000.0001) // End MONITOR dynamic field statistics
(PID.TID 0000.0001) // =======================================================
(PID.TID 0000.0001) // =======================================================
(PID.TID 0000.0001) // Begin OBCS MONITOR field statistics
(PID.TID 0000.0001) // =======================================================
(PID.TID 0000.0001) %MON obc_N_vVel_max               =   1.4607269826674E-05
(PID.TID 0000.0001) %MON obc_N_vVel_min               =   1.4607269826674E-05
(PID.TID 0000.0001) %MON obc_N_vVel_mean              =   1.4607269826674E-05
(PID.TID 0000.0001) %MON obc_N_vVel_sd                =  -7.4963243012618E-24
(PID.TID 0000.0001) %MON obc_N_vVel_Int               =   9.6407980856051E+02
(PID.TID 0000.0001) // =======================================================
(PID.TID 0000.0001) // End OBCS MONITOR field statistics
(PID.TID 0000.0001) // =======================================================
 cg2d: Sum(rhs),rhsMax =   4.51061679613700E+00  2.99937335910922E+02
(PID.TID 0000.0001)      cg2d_init_res =   7.23262931519454E-06
(PID.TID 0000.0001)      cg2d_iters(min,last) =      -1      82
(PID.TID 0000.0001)      cg2d_last_res =   9.51420009160441E-12
(PID.TID 0000.0001) // =======================================================
(PID.TID 0000.0001) // Begin MONITOR dynamic field statistics
(PID.TID 0000.0001) // =======================================================
(PID.TID 0000.0001) %MON time_tsnumber                =                  1095
(PID.TID 0000.0001) %MON time_secondsf                =   1.0950000000000E+05
(PID.TID 0000.0001) %MON dynstat_eta_max              =   5.7983045306026E+00
(PID.TID 0000.0001) %MON dynstat_eta_min              =  -1.4198720470320E+01
(PID.TID 0000.0001) %MON dynstat_eta_mean             =  -2.5053747873118E+00
(PID.TID 0000.0001) %MON dynstat_eta_sd               =   4.9504157049628E+00
(PID.TID 0000.0001) %MON dynstat_eta_del2             =   2.0715282208990E-01
(PID.TID 0000.0001) %MON dynstat_uvel_max             =   5.7757480719154E-03
(PID.TID 0000.0001) %MON dynstat_uvel_min             =  -2.5900376707014E-02
(PID.TID 0000.0001) %MON dynstat_uvel_mean            =  -1.1748559700777E-07
(PID.TID 0000.0001) %MON dynstat_uvel_sd              =   7.6012988373019E-04
(PID.TID 0000.0001) %MON dynstat_uvel_del2            =   1.1137476318531E-06
(PID.TID 0000.0001) %MON dynstat_vvel_max             =   2.0208704516445E-02
(PID.TID 0000.0001) %MON dynstat_vvel_min             =  -8.2848910953270E-03
(PID.TID 0000.0001) %MON dynstat_vvel_mean            =   1.4939109556708E-05
(PID.TID 0000.0001) %MON dynstat_vvel_sd              =   4.5527799287966E-04
(PID.TID 0000.0001) %MON dynstat_vvel_del2            =   9.1157772662637E-07
(PID.TID 0000.0001) %MON dynstat_wvel_max             =   1.0216562098227E-03
(PID.TID 0000.0001) %MON dynstat_wvel_min             =  -9.8934208580935E-04
(PID.TID 0000.0001) %MON dynstat_wvel_mean            =   7.2180682488602E-09
(PID.TID 0000.0001) %MON dynstat_wvel_sd              =   1.8409514513750E-05
(PID.TID 0000.0001) %MON dynstat_wvel_del2            =   7.7719244400515E-08
(PID.TID 0000.0001) %MON dynstat_theta_max            =   1.2000000000000E+00
(PID.TID 0000.0001) %MON dynstat_theta_min            =  -1.0000000000000E+00
(PID.TID 0000.0001) %MON dynstat_theta_mean           =   5.6870171644566E-01
(PID.TID 0000.0001) %MON dynstat_theta_sd             =   8.6836689024641E-01
(PID.TID 0000.0001) %MON dynstat_theta_del2           =   2.9312739950803E-06
(PID.TID 0000.0001) %MON dynstat_salt_max             =   3.4700000000000E+01
(PID.TID 0000.0001) %MON dynstat_salt_min             =   3.4000000000000E+01
(PID.TID 0000.0001) %MON dynstat_salt_mean            =   3.4499094857031E+01
(PID.TID 0000.0001) %MON dynstat_salt_sd              =   2.7628443946695E-01
(PID.TID 0000.0001) %MON dynstat_salt_del2            =   1.1557267805526E-06
(PID.TID 0000.0001) %MON advcfl_uvel_max              =   2.5900376707014E-03
(PID.TID 0000.0001) %MON advcfl_vvel_max              =   2.0208704516445E-03
(PID.TID 0000.0001) %MON advcfl_wvel_max              =   5.1082810491135E-03
(PID.TID 0000.0001) %MON advcfl_W_hf_max              =   5.1082810491135E-03
(PID.TID 0000.0001) %MON pe_b_mean                    =  -8.3021842365600E-01
(PID.TID 0000.0001) %MON ke_max                       =   2.4154533090556E-04
(PID.TID 0000.0001) %MON ke_mean                      =   3.8691587248048E-07
(PID.TID 0000.0001) %MON ke_vol                       =   4.2724781255387E+12
(PID.TID 0000.0001) // =======================================================
(PID.TID 0000.0001) // End MONITOR dynamic field statistics
(PID.TID 0000.0001) // =======================================================
(PID.TID 0000.0001) // =======================================================
(PID.TID 0000.0001) // Begin OBCS MONITOR field statistics
(PID.TID 0000.0001) // =======================================================
(PID.TID 0000.0001) %MON obc_N_vVel_max               =   1.4652305881602E-05
(PID.TID 0000.0001) %MON obc_N_vVel_min               =   1.4652305881602E-05
(PID.TID 0000.0001) %MON obc_N_vVel_mean              =   1.4652305881602E-05
(PID.TID 0000.0001) %MON obc_N_vVel_sd                =  -1.1554679181600E-23
(PID.TID 0000.0001) %MON obc_N_vVel_Int               =   9.6705218818576E+02
(PID.TID 0000.0001) // =======================================================
(PID.TID 0000.0001) // End OBCS MONITOR field statistics
(PID.TID 0000.0001) // =======================================================
 cg2d: Sum(rhs),rhsMax =   4.51063147774804E+00  2.99937407711015E+02
(PID.TID 0000.0001)      cg2d_init_res =   7.28111105077953E-06
(PID.TID 0000.0001)      cg2d_iters(min,last) =      -1      82
(PID.TID 0000.0001)      cg2d_last_res =   9.53094934762271E-12
(PID.TID 0000.0001) // =======================================================
(PID.TID 0000.0001) // Begin MONITOR dynamic field statistics
(PID.TID 0000.0001) // =======================================================
(PID.TID 0000.0001) %MON time_tsnumber                =                  1096
(PID.TID 0000.0001) %MON time_secondsf                =   1.0960000000000E+05
(PID.TID 0000.0001) %MON dynstat_eta_max              =   5.7982842188969E+00
(PID.TID 0000.0001) %MON dynstat_eta_min              =  -1.4198735724176E+01
(PID.TID 0000.0001) %MON dynstat_eta_mean             =  -2.5053835418064E+00
(PID.TID 0000.0001) %MON dynstat_eta_sd               =   4.9504189575884E+00
(PID.TID 0000.0001) %MON dynstat_eta_del2             =   2.0715285420919E-01
(PID.TID 0000.0001) %MON dynstat_uvel_max             =   5.7897670145337E-03
(PID.TID 0000.0001) %MON dynstat_uvel_min             =  -2.5967795741240E-02
(PID.TID 0000.0001) %MON dynstat_uvel_mean            =  -1.1749491871475E-07
(PID.TID 0000.0001) %MON dynstat_uvel_sd              =   7.6197661709723E-04
(PID.TID 0000.0001) %MON dynstat_uvel_del2            =   1.1163753076975E-06
(PID.TID 0000.0001) %MON dynstat_vvel_max             =   2.0254150946154E-02
(PID.TID 0000.0001) %MON dynstat_vvel_min             =  -8.3069987011708E-03
(PID.TID 0000.0001) %MON dynstat_vvel_mean            =   1.4992202750636E-05
(PID.TID 0000.0001) %MON dynstat_vvel_sd              =   4.5619613751457E-04
(PID.TID 0000.0001) %MON dynstat_vvel_del2            =   9.1348953347220E-07
(PID.TID 0000.0001) %MON dynstat_wvel_max             =   1.0242164242576E-03
(PID.TID 0000.0001) %MON dynstat_wvel_min             =  -9.9175581963136E-04
(PID.TID 0000.0001) %MON dynstat_wvel_mean            =   7.2876687178396E-09
(PID.TID 0000.0001) %MON dynstat_wvel_sd              =   1.8528213840977E-05
(PID.TID 0000.0001) %MON dynstat_wvel_del2            =   7.7927194966086E-08
(PID.TID 0000.0001) %MON dynstat_theta_max            =   1.2000000000000E+00
(PID.TID 0000.0001) %MON dynstat_theta_min            =  -1.0000000000000E+00
(PID.TID 0000.0001) %MON dynstat_theta_mean           =   5.6870081215513E-01
(PID.TID 0000.0001) %MON dynstat_theta_sd             =   8.6836640199958E-01
(PID.TID 0000.0001) %MON dynstat_theta_del2           =   2.9370527250476E-06
(PID.TID 0000.0001) %MON dynstat_salt_max             =   3.4700000000000E+01
(PID.TID 0000.0001) %MON dynstat_salt_min             =   3.4000000000000E+01
(PID.TID 0000.0001) %MON dynstat_salt_mean            =   3.4499094495197E+01
(PID.TID 0000.0001) %MON dynstat_salt_sd              =   2.7628425152718E-01
(PID.TID 0000.0001) %MON dynstat_salt_del2            =   1.1580713378427E-06
(PID.TID 0000.0001) %MON advcfl_uvel_max              =   2.5967795741240E-03
(PID.TID 0000.0001) %MON advcfl_vvel_max              =   2.0254150946154E-03
(PID.TID 0000.0001) %MON advcfl_wvel_max              =   5.1210821212881E-03
(PID.TID 0000.0001) %MON advcfl_W_hf_max              =   5.1210821212881E-03
(PID.TID 0000.0001) %MON pe_b_mean                    =  -8.3022064070852E-01
(PID.TID 0000.0001) %MON ke_max                       =   2.4287207386225E-04
(PID.TID 0000.0001) %MON ke_mean                      =   3.8871267562235E-07
(PID.TID 0000.0001) %MON ke_vol                       =   4.2724780737634E+12
(PID.TID 0000.0001) // =======================================================
(PID.TID 0000.0001) // End MONITOR dynamic field statistics
(PID.TID 0000.0001) // =======================================================
(PID.TID 0000.0001) // =======================================================
(PID.TID 0000.0001) // Begin OBCS MONITOR field statistics
(PID.TID 0000.0001) // =======================================================
(PID.TID 0000.0001) %MON obc_N_vVel_max               =   1.4699062118434E-05
(PID.TID 0000.0001) %MON obc_N_vVel_min               =   1.4699062118434E-05
(PID.TID 0000.0001) %MON obc_N_vVel_mean              =   1.4699062118434E-05
(PID.TID 0000.0001) %MON obc_N_vVel_sd                =   4.4177248191148E-12
(PID.TID 0000.0001) %MON obc_N_vVel_Int               =   9.7013809981662E+02
(PID.TID 0000.0001) // =======================================================
(PID.TID 0000.0001) // End OBCS MONITOR field statistics
(PID.TID 0000.0001) // =======================================================
 cg2d: Sum(rhs),rhsMax =   4.51064620322717E+00  2.99937481309434E+02
(PID.TID 0000.0001)      cg2d_init_res =   7.32933818686057E-06
(PID.TID 0000.0001)      cg2d_iters(min,last) =      -1      82
(PID.TID 0000.0001)      cg2d_last_res =   9.54443063355996E-12
(PID.TID 0000.0001) // =======================================================
(PID.TID 0000.0001) // Begin MONITOR dynamic field statistics
(PID.TID 0000.0001) // =======================================================
(PID.TID 0000.0001) %MON time_tsnumber                =                  1097
(PID.TID 0000.0001) %MON time_secondsf                =   1.0970000000000E+05
(PID.TID 0000.0001) %MON dynstat_eta_max              =   5.7982638228832E+00
(PID.TID 0000.0001) %MON dynstat_eta_min              =  -1.4198751052067E+01
(PID.TID 0000.0001) %MON dynstat_eta_mean             =  -2.5053923356924E+00
(PID.TID 0000.0001) %MON dynstat_eta_sd               =   4.9504222244253E+00
(PID.TID 0000.0001) %MON dynstat_eta_del2             =   2.0715288640065E-01
(PID.TID 0000.0001) %MON dynstat_uvel_max             =   5.8038124405577E-03
(PID.TID 0000.0001) %MON dynstat_uvel_min             =  -2.6035330140710E-02
(PID.TID 0000.0001) %MON dynstat_uvel_mean            =  -1.1740084120425E-07
(PID.TID 0000.0001) %MON dynstat_uvel_sd              =   7.6382716135849E-04
(PID.TID 0000.0001) %MON dynstat_uvel_del2            =   1.1190099263588E-06
(PID.TID 0000.0001) %MON dynstat_vvel_max             =   2.0299644509785E-02
(PID.TID 0000.0001) %MON dynstat_vvel_min             =  -8.3291597380182E-03
(PID.TID 0000.0001) %MON dynstat_vvel_mean            =   1.5046174728929E-05
(PID.TID 0000.0001) %MON dynstat_vvel_sd              =   4.5711751938416E-04
(PID.TID 0000.0001) %MON dynstat_vvel_del2            =   9.1542424460227E-07
(PID.TID 0000.0001) %MON dynstat_wvel_max             =   1.0267803599054E-03
(PID.TID 0000.0001) %MON dynstat_wvel_min             =  -9.9417315373662E-04
(PID.TID 0000.0001) %MON dynstat_wvel_mean            =   7.3533776665610E-09
(PID.TID 0000.0001) %MON dynstat_wvel_sd              =   1.8655263102113E-05
(PID.TID 0000.0001) %MON dynstat_wvel_del2            =   7.8216853999089E-08
(PID.TID 0000.0001) %MON dynstat_theta_max            =   1.2000000000000E+00
(PID.TID 0000.0001) %MON dynstat_theta_min            =  -1.0000000000000E+00
(PID.TID 0000.0001) %MON dynstat_theta_mean           =   5.6869990624211E-01
(PID.TID 0000.0001) %MON dynstat_theta_sd             =   8.6836591283022E-01
(PID.TID 0000.0001) %MON dynstat_theta_del2           =   2.9428149543722E-06
(PID.TID 0000.0001) %MON dynstat_salt_max             =   3.4700000000000E+01
(PID.TID 0000.0001) %MON dynstat_salt_min             =   3.4000000000000E+01
(PID.TID 0000.0001) %MON dynstat_salt_mean            =   3.4499094132710E+01
(PID.TID 0000.0001) %MON dynstat_salt_sd              =   2.7628406323278E-01
(PID.TID 0000.0001) %MON dynstat_salt_del2            =   1.1604122402652E-06
(PID.TID 0000.0001) %MON advcfl_uvel_max              =   2.6035330140710E-03
(PID.TID 0000.0001) %MON advcfl_vvel_max              =   2.0299644509785E-03
(PID.TID 0000.0001) %MON advcfl_wvel_max              =   5.1339017995269E-03
(PID.TID 0000.0001) %MON advcfl_W_hf_max              =   5.1339017995269E-03
(PID.TID 0000.0001) %MON pe_b_mean                    =  -8.3022286671171E-01
(PID.TID 0000.0001) %MON ke_max                       =   2.4420507418241E-04
(PID.TID 0000.0001) %MON ke_mean                      =   3.9051801326638E-07
(PID.TID 0000.0001) %MON ke_vol                       =   4.2724780217617E+12
(PID.TID 0000.0001) // =======================================================
(PID.TID 0000.0001) // End MONITOR dynamic field statistics
(PID.TID 0000.0001) // =======================================================
(PID.TID 0000.0001) // =======================================================
(PID.TID 0000.0001) // Begin OBCS MONITOR field statistics
(PID.TID 0000.0001) // =======================================================
(PID.TID 0000.0001) %MON obc_N_vVel_max               =   1.4746988262741E-05
(PID.TID 0000.0001) %MON obc_N_vVel_min               =   1.4746988262741E-05
(PID.TID 0000.0001) %MON obc_N_vVel_mean              =   1.4746988262741E-05
(PID.TID 0000.0001) %MON obc_N_vVel_sd                =  -4.0325054861960E-24
(PID.TID 0000.0001) %MON obc_N_vVel_Int               =   9.7330122534087E+02
(PID.TID 0000.0001) // =======================================================
(PID.TID 0000.0001) // End OBCS MONITOR field statistics
(PID.TID 0000.0001) // =======================================================
 cg2d: Sum(rhs),rhsMax =   4.51066097400069E+00  2.99937556690316E+02
(PID.TID 0000.0001)      cg2d_init_res =   7.37670422485533E-06
(PID.TID 0000.0001)      cg2d_iters(min,last) =      -1      82
(PID.TID 0000.0001)      cg2d_last_res =   9.55490271957484E-12
(PID.TID 0000.0001) // =======================================================
(PID.TID 0000.0001) // Begin MONITOR dynamic field statistics
(PID.TID 0000.0001) // =======================================================
(PID.TID 0000.0001) %MON time_tsnumber                =                  1098
(PID.TID 0000.0001) %MON time_secondsf                =   1.0980000000000E+05
(PID.TID 0000.0001) %MON dynstat_eta_max              =   5.7982433417902E+00
(PID.TID 0000.0001) %MON dynstat_eta_min              =  -1.4198766453469E+01
(PID.TID 0000.0001) %MON dynstat_eta_mean             =  -2.5054011696299E+00
(PID.TID 0000.0001) %MON dynstat_eta_sd               =   4.9504255051676E+00
(PID.TID 0000.0001) %MON dynstat_eta_del2             =   2.0715291866370E-01
(PID.TID 0000.0001) %MON dynstat_uvel_max             =   5.8178844307086E-03
(PID.TID 0000.0001) %MON dynstat_uvel_min             =  -2.6102979948964E-02
(PID.TID 0000.0001) %MON dynstat_uvel_mean            =  -1.1721987396364E-07
(PID.TID 0000.0001) %MON dynstat_uvel_sd              =   7.6568152626851E-04
(PID.TID 0000.0001) %MON dynstat_uvel_del2            =   1.1216515396617E-06
(PID.TID 0000.0001) %MON dynstat_vvel_max             =   2.0345184950743E-02
(PID.TID 0000.0001) %MON dynstat_vvel_min             =  -8.3513744411920E-03
(PID.TID 0000.0001) %MON dynstat_vvel_mean            =   1.5100391810140E-05
(PID.TID 0000.0001) %MON dynstat_vvel_sd              =   4.5804090960621E-04
(PID.TID 0000.0001) %MON dynstat_vvel_del2            =   9.1737630909934E-07
(PID.TID 0000.0001) %MON dynstat_wvel_max             =   1.0293480096242E-03
(PID.TID 0000.0001) %MON dynstat_wvel_min             =  -9.9659407523029E-04
(PID.TID 0000.0001) %MON dynstat_wvel_mean            =   7.4144325777620E-09
(PID.TID 0000.0001) %MON dynstat_wvel_sd              =   1.8785067254417E-05
(PID.TID 0000.0001) %MON dynstat_wvel_del2            =   7.8569807967660E-08
(PID.TID 0000.0001) %MON dynstat_theta_max            =   1.2000000000000E+00
(PID.TID 0000.0001) %MON dynstat_theta_min            =  -1.0000000000000E+00
(PID.TID 0000.0001) %MON dynstat_theta_mean           =   5.6869899870398E-01
(PID.TID 0000.0001) %MON dynstat_theta_sd             =   8.6836542273630E-01
(PID.TID 0000.0001) %MON dynstat_theta_del2           =   2.9485680151770E-06
(PID.TID 0000.0001) %MON dynstat_salt_max             =   3.4700000000000E+01
(PID.TID 0000.0001) %MON dynstat_salt_min             =   3.4000000000000E+01
(PID.TID 0000.0001) %MON dynstat_salt_mean            =   3.4499093769570E+01
(PID.TID 0000.0001) %MON dynstat_salt_sd              =   2.7628387458322E-01
(PID.TID 0000.0001) %MON dynstat_salt_del2            =   1.1627514373476E-06
(PID.TID 0000.0001) %MON advcfl_uvel_max              =   2.6102979948964E-03
(PID.TID 0000.0001) %MON advcfl_vvel_max              =   2.0345184950743E-03
(PID.TID 0000.0001) %MON advcfl_wvel_max              =   5.1467400481211E-03
(PID.TID 0000.0001) %MON advcfl_W_hf_max              =   5.1467400481211E-03
(PID.TID 0000.0001) %MON pe_b_mean                    =  -8.3022510167658E-01
(PID.TID 0000.0001) %MON ke_max                       =   2.4554435591611E-04
(PID.TID 0000.0001) %MON ke_mean                      =   3.9233135022781E-07
(PID.TID 0000.0001) %MON ke_vol                       =   4.2724779695260E+12
(PID.TID 0000.0001) // =======================================================
(PID.TID 0000.0001) // End MONITOR dynamic field statistics
(PID.TID 0000.0001) // =======================================================
(PID.TID 0000.0001) // =======================================================
(PID.TID 0000.0001) // Begin OBCS MONITOR field statistics
(PID.TID 0000.0001) // =======================================================
(PID.TID 0000.0001) %MON obc_N_vVel_max               =   1.4795520388113E-05
(PID.TID 0000.0001) %MON obc_N_vVel_min               =   1.4795520388113E-05
(PID.TID 0000.0001) %MON obc_N_vVel_mean              =   1.4795520388113E-05
(PID.TID 0000.0001) %MON obc_N_vVel_sd                =  -1.4863401631812E-23
(PID.TID 0000.0001) %MON obc_N_vVel_Int               =   9.7650434561548E+02
(PID.TID 0000.0001) // =======================================================
(PID.TID 0000.0001) // End OBCS MONITOR field statistics
(PID.TID 0000.0001) // =======================================================
 cg2d: Sum(rhs),rhsMax =   4.51067579062391E+00  2.99937633819830E+02
(PID.TID 0000.0001)      cg2d_init_res =   7.42259980565770E-06
(PID.TID 0000.0001)      cg2d_iters(min,last) =      -1      82
(PID.TID 0000.0001)      cg2d_last_res =   9.56278653817824E-12
(PID.TID 0000.0001) // =======================================================
(PID.TID 0000.0001) // Begin MONITOR dynamic field statistics
(PID.TID 0000.0001) // =======================================================
(PID.TID 0000.0001) %MON time_tsnumber                =                  1099
(PID.TID 0000.0001) %MON time_secondsf                =   1.0990000000000E+05
(PID.TID 0000.0001) %MON dynstat_eta_max              =   5.7982227762323E+00
(PID.TID 0000.0001) %MON dynstat_eta_min              =  -1.4198781926929E+01
(PID.TID 0000.0001) %MON dynstat_eta_mean             =  -2.5054100436447E+00
(PID.TID 0000.0001) %MON dynstat_eta_sd               =   4.9504287992980E+00
(PID.TID 0000.0001) %MON dynstat_eta_del2             =   2.0715295099760E-01
(PID.TID 0000.0001) %MON dynstat_uvel_max             =   5.8319830622118E-03
(PID.TID 0000.0001) %MON dynstat_uvel_min             =  -2.6170745217669E-02
(PID.TID 0000.0001) %MON dynstat_uvel_mean            =  -1.1697311240490E-07
(PID.TID 0000.0001) %MON dynstat_uvel_sd              =   7.6753972014374E-04
(PID.TID 0000.0001) %MON dynstat_uvel_del2            =   1.1243001941604E-06
(PID.TID 0000.0001) %MON dynstat_vvel_max             =   2.0390772013588E-02
(PID.TID 0000.0001) %MON dynstat_vvel_min             =  -8.3736430503638E-03
(PID.TID 0000.0001) %MON dynstat_vvel_mean            =   1.5154217166557E-05
(PID.TID 0000.0001) %MON dynstat_vvel_sd              =   4.5896506356095E-04
(PID.TID 0000.0001) %MON dynstat_vvel_del2            =   9.1933951847890E-07
(PID.TID 0000.0001) %MON dynstat_wvel_max             =   1.0319193661192E-03
(PID.TID 0000.0001) %MON dynstat_wvel_min             =  -9.9901857078927E-04
(PID.TID 0000.0001) %MON dynstat_wvel_mean            =   7.4701244710809E-09
(PID.TID 0000.0001) %MON dynstat_wvel_sd              =   1.8912024283801E-05
(PID.TID 0000.0001) %MON dynstat_wvel_del2            =   7.8964435353928E-08
(PID.TID 0000.0001) %MON dynstat_theta_max            =   1.2000000000000E+00
(PID.TID 0000.0001) %MON dynstat_theta_min            =  -1.0000000000000E+00
(PID.TID 0000.0001) %MON dynstat_theta_mean           =   5.6869808953788E-01
(PID.TID 0000.0001) %MON dynstat_theta_sd             =   8.6836493172064E-01
(PID.TID 0000.0001) %MON dynstat_theta_del2           =   2.9543201682332E-06
(PID.TID 0000.0001) %MON dynstat_salt_max             =   3.4700000000000E+01
(PID.TID 0000.0001) %MON dynstat_salt_min             =   3.4000000000000E+01
(PID.TID 0000.0001) %MON dynstat_salt_mean            =   3.4499093405776E+01
(PID.TID 0000.0001) %MON dynstat_salt_sd              =   2.7628368557906E-01
(PID.TID 0000.0001) %MON dynstat_salt_del2            =   1.1650911259459E-06
(PID.TID 0000.0001) %MON advcfl_uvel_max              =   2.6170745217669E-03
(PID.TID 0000.0001) %MON advcfl_vvel_max              =   2.0390772013588E-03
(PID.TID 0000.0001) %MON advcfl_wvel_max              =   5.1595968305958E-03
(PID.TID 0000.0001) %MON advcfl_W_hf_max              =   5.1595968305958E-03
(PID.TID 0000.0001) %MON pe_b_mean                    =  -8.3022734545161E-01
(PID.TID 0000.0001) %MON ke_max                       =   2.4688994335786E-04
(PID.TID 0000.0001) %MON ke_mean                      =   3.9415213842935E-07
(PID.TID 0000.0001) %MON ke_vol                       =   4.2724779170524E+12
(PID.TID 0000.0001) // =======================================================
(PID.TID 0000.0001) // End MONITOR dynamic field statistics
(PID.TID 0000.0001) // =======================================================
(PID.TID 0000.0001) // =======================================================
(PID.TID 0000.0001) // Begin OBCS MONITOR field statistics
(PID.TID 0000.0001) // =======================================================
(PID.TID 0000.0001) %MON obc_N_vVel_max               =   1.4844087547848E-05
(PID.TID 0000.0001) %MON obc_N_vVel_min               =   1.4844087547848E-05
(PID.TID 0000.0001) %MON obc_N_vVel_mean              =   1.4844087547848E-05
(PID.TID 0000.0001) %MON obc_N_vVel_sd                =  -7.1344327832699E-24
(PID.TID 0000.0001) %MON obc_N_vVel_Int               =   9.7970977815799E+02
(PID.TID 0000.0001) // =======================================================
(PID.TID 0000.0001) // End OBCS MONITOR field statistics
(PID.TID 0000.0001) // =======================================================
 cg2d: Sum(rhs),rhsMax =   4.51069065277400E+00  2.99937712646571E+02
(PID.TID 0000.0001)      cg2d_init_res =   7.46642857198873E-06
(PID.TID 0000.0001)      cg2d_iters(min,last) =      -1      82
(PID.TID 0000.0001)      cg2d_last_res =   9.56858103621298E-12
(PID.TID 0000.0001) // =======================================================
(PID.TID 0000.0001) // Begin MONITOR dynamic field statistics
(PID.TID 0000.0001) // =======================================================
(PID.TID 0000.0001) %MON time_tsnumber                =                  1100
(PID.TID 0000.0001) %MON time_secondsf                =   1.1000000000000E+05
(PID.TID 0000.0001) %MON dynstat_eta_max              =   5.7982021282187E+00
(PID.TID 0000.0001) %MON dynstat_eta_min              =  -1.4198797470097E+01
(PID.TID 0000.0001) %MON dynstat_eta_mean             =  -2.5054189571283E+00
(PID.TID 0000.0001) %MON dynstat_eta_sd               =   4.9504321060936E+00
(PID.TID 0000.0001) %MON dynstat_eta_del2             =   2.0715298340142E-01
(PID.TID 0000.0001) %MON dynstat_uvel_max             =   5.8461084090879E-03
(PID.TID 0000.0001) %MON dynstat_uvel_min             =  -2.6238626004026E-02
(PID.TID 0000.0001) %MON dynstat_uvel_mean            =  -1.1668350019795E-07
(PID.TID 0000.0001) %MON dynstat_uvel_sd              =   7.6940174972202E-04
(PID.TID 0000.0001) %MON dynstat_uvel_del2            =   1.1269559302127E-06
(PID.TID 0000.0001) %MON dynstat_vvel_max             =   2.0436405443395E-02
(PID.TID 0000.0001) %MON dynstat_vvel_min             =  -8.3959658051178E-03
(PID.TID 0000.0001) %MON dynstat_vvel_mean            =   1.5207018403297E-05
(PID.TID 0000.0001) %MON dynstat_vvel_sd              =   4.5988878570029E-04
(PID.TID 0000.0001) %MON dynstat_vvel_del2            =   9.2130742471271E-07
(PID.TID 0000.0001) %MON dynstat_wvel_max             =   1.0344944220225E-03
(PID.TID 0000.0001) %MON dynstat_wvel_min             =  -1.0014466269580E-03
(PID.TID 0000.0001) %MON dynstat_wvel_mean            =   7.5198067609444E-09
(PID.TID 0000.0001) %MON dynstat_wvel_sd              =   1.9030825023315E-05
(PID.TID 0000.0001) %MON dynstat_wvel_del2            =   7.9377520041327E-08
(PID.TID 0000.0001) %MON dynstat_theta_max            =   1.2000000000000E+00
(PID.TID 0000.0001) %MON dynstat_theta_min            =  -1.0000000000000E+00
(PID.TID 0000.0001) %MON dynstat_theta_mean           =   5.6869717874061E-01
(PID.TID 0000.0001) %MON dynstat_theta_sd             =   8.6836443978372E-01
(PID.TID 0000.0001) %MON dynstat_theta_del2           =   2.9600800388973E-06
(PID.TID 0000.0001) %MON dynstat_salt_max             =   3.4700000000000E+01
(PID.TID 0000.0001) %MON dynstat_salt_min             =   3.4000000000000E+01
(PID.TID 0000.0001) %MON dynstat_salt_mean            =   3.4499093041325E+01
(PID.TID 0000.0001) %MON dynstat_salt_sd              =   2.7628349622072E-01
(PID.TID 0000.0001) %MON dynstat_salt_del2            =   1.1674336111756E-06
(PID.TID 0000.0001) %MON advcfl_uvel_max              =   2.6238626004026E-03
(PID.TID 0000.0001) %MON advcfl_vvel_max              =   2.0436405443395E-03
(PID.TID 0000.0001) %MON advcfl_wvel_max              =   5.1724721101123E-03
(PID.TID 0000.0001) %MON advcfl_W_hf_max              =   5.1724721101123E-03
(PID.TID 0000.0001) %MON pe_b_mean                    =  -8.3022959772446E-01
(PID.TID 0000.0001) %MON ke_max                       =   2.4824186099214E-04
(PID.TID 0000.0001) %MON ke_mean                      =   3.9597984660951E-07
(PID.TID 0000.0001) %MON ke_vol                       =   4.2724778643408E+12
(PID.TID 0000.0001) // =======================================================
(PID.TID 0000.0001) // End MONITOR dynamic field statistics
(PID.TID 0000.0001) // =======================================================
(PID.TID 0000.0001) // =======================================================
(PID.TID 0000.0001) // Begin OBCS MONITOR field statistics
(PID.TID 0000.0001) // =======================================================
(PID.TID 0000.0001) %MON obc_N_vVel_max               =   1.4892118524990E-05
(PID.TID 0000.0001) %MON obc_N_vVel_min               =   1.4892118524989E-05
(PID.TID 0000.0001) %MON obc_N_vVel_mean              =   1.4892118524989E-05
(PID.TID 0000.0001) %MON obc_N_vVel_sd                =   2.5319260943570E-12
(PID.TID 0000.0001) %MON obc_N_vVel_Int               =   9.8287982264928E+02
(PID.TID 0000.0001) // =======================================================
(PID.TID 0000.0001) // End OBCS MONITOR field statistics
(PID.TID 0000.0001) // =======================================================
 cg2d: Sum(rhs),rhsMax =   4.51070555925244E+00  2.99937793102283E+02
(PID.TID 0000.0001)      cg2d_init_res =   7.50762437872146E-06
(PID.TID 0000.0001)      cg2d_iters(min,last) =      -1      82
(PID.TID 0000.0001)      cg2d_last_res =   9.57278324859771E-12
(PID.TID 0000.0001) // =======================================================
(PID.TID 0000.0001) // Begin MONITOR dynamic field statistics
(PID.TID 0000.0001) // =======================================================
(PID.TID 0000.0001) %MON time_tsnumber                =                  1101
(PID.TID 0000.0001) %MON time_secondsf                =   1.1010000000000E+05
(PID.TID 0000.0001) %MON dynstat_eta_max              =   5.7981814011196E+00
(PID.TID 0000.0001) %MON dynstat_eta_min              =  -1.4198813079738E+01
(PID.TID 0000.0001) %MON dynstat_eta_mean             =  -2.5054279088451E+00
(PID.TID 0000.0001) %MON dynstat_eta_sd               =   4.9504354246342E+00
(PID.TID 0000.0001) %MON dynstat_eta_del2             =   2.0715301587404E-01
(PID.TID 0000.0001) %MON dynstat_uvel_max             =   5.8602605430345E-03
(PID.TID 0000.0001) %MON dynstat_uvel_min             =  -2.6306622367930E-02
(PID.TID 0000.0001) %MON dynstat_uvel_mean            =  -1.1637319909792E-07
(PID.TID 0000.0001) %MON dynstat_uvel_sd              =   7.7126762005756E-04
(PID.TID 0000.0001) %MON dynstat_uvel_del2            =   1.1296187812495E-06
(PID.TID 0000.0001) %MON dynstat_vvel_max             =   2.0482084984927E-02
(PID.TID 0000.0001) %MON dynstat_vvel_min             =  -8.4183429411979E-03
(PID.TID 0000.0001) %MON dynstat_vvel_mean            =   1.5258175190250E-05
(PID.TID 0000.0001) %MON dynstat_vvel_sd              =   4.6081099117826E-04
(PID.TID 0000.0001) %MON dynstat_vvel_del2            =   9.2327376660631E-07
(PID.TID 0000.0001) %MON dynstat_wvel_max             =   1.0370731699195E-03
(PID.TID 0000.0001) %MON dynstat_wvel_min             =  -1.0038782304682E-03
(PID.TID 0000.0001) %MON dynstat_wvel_mean            =   7.5629029692267E-09
(PID.TID 0000.0001) %MON dynstat_wvel_sd              =   1.9136719826531E-05
(PID.TID 0000.0001) %MON dynstat_wvel_del2            =   7.9785879907674E-08
(PID.TID 0000.0001) %MON dynstat_theta_max            =   1.2000000000000E+00
(PID.TID 0000.0001) %MON dynstat_theta_min            =  -1.0000000000000E+00
(PID.TID 0000.0001) %MON dynstat_theta_mean           =   5.6869626630878E-01
(PID.TID 0000.0001) %MON dynstat_theta_sd             =   8.6836394692799E-01
(PID.TID 0000.0001) %MON dynstat_theta_del2           =   2.9658560904537E-06
(PID.TID 0000.0001) %MON dynstat_salt_max             =   3.4700000000000E+01
(PID.TID 0000.0001) %MON dynstat_salt_min             =   3.4000000000000E+01
(PID.TID 0000.0001) %MON dynstat_salt_mean            =   3.4499092676218E+01
(PID.TID 0000.0001) %MON dynstat_salt_sd              =   2.7628330650871E-01
(PID.TID 0000.0001) %MON dynstat_salt_del2            =   1.1697811824696E-06
(PID.TID 0000.0001) %MON advcfl_uvel_max              =   2.6306622367930E-03
(PID.TID 0000.0001) %MON advcfl_vvel_max              =   2.0482084984927E-03
(PID.TID 0000.0001) %MON advcfl_wvel_max              =   5.1853658495975E-03
(PID.TID 0000.0001) %MON advcfl_W_hf_max              =   5.1853658495975E-03
(PID.TID 0000.0001) %MON pe_b_mean                    =  -8.3023185802557E-01
(PID.TID 0000.0001) %MON ke_max                       =   2.4960013343201E-04
(PID.TID 0000.0001) %MON ke_mean                      =   3.9781398897055E-07
(PID.TID 0000.0001) %MON ke_vol                       =   4.2724778113947E+12
(PID.TID 0000.0001) // =======================================================
(PID.TID 0000.0001) // End MONITOR dynamic field statistics
(PID.TID 0000.0001) // =======================================================
(PID.TID 0000.0001) // =======================================================
(PID.TID 0000.0001) // Begin OBCS MONITOR field statistics
(PID.TID 0000.0001) // =======================================================
(PID.TID 0000.0001) %MON obc_N_vVel_max               =   1.4939048696937E-05
(PID.TID 0000.0001) %MON obc_N_vVel_min               =   1.4939048696937E-05
(PID.TID 0000.0001) %MON obc_N_vVel_mean              =   1.4939048696937E-05
(PID.TID 0000.0001) %MON obc_N_vVel_sd                =   2.5522631768403E-12
(PID.TID 0000.0001) %MON obc_N_vVel_Int               =   9.8597721399783E+02
(PID.TID 0000.0001) // =======================================================
(PID.TID 0000.0001) // End OBCS MONITOR field statistics
(PID.TID 0000.0001) // =======================================================
 cg2d: Sum(rhs),rhsMax =   4.51072050799592E+00  2.99937875102880E+02
(PID.TID 0000.0001)      cg2d_init_res =   7.54566722214541E-06
(PID.TID 0000.0001)      cg2d_iters(min,last) =      -1      82
(PID.TID 0000.0001)      cg2d_last_res =   9.57586267738717E-12
(PID.TID 0000.0001) // =======================================================
(PID.TID 0000.0001) // Begin MONITOR dynamic field statistics
(PID.TID 0000.0001) // =======================================================
(PID.TID 0000.0001) %MON time_tsnumber                =                  1102
(PID.TID 0000.0001) %MON time_secondsf                =   1.1020000000000E+05
(PID.TID 0000.0001) %MON dynstat_eta_max              =   5.7981605995893E+00
(PID.TID 0000.0001) %MON dynstat_eta_min              =  -1.4198828751746E+01
(PID.TID 0000.0001) %MON dynstat_eta_mean             =  -2.5054368969468E+00
(PID.TID 0000.0001) %MON dynstat_eta_sd               =   4.9504387538142E+00
(PID.TID 0000.0001) %MON dynstat_eta_del2             =   2.0715304841424E-01
(PID.TID 0000.0001) %MON dynstat_uvel_max             =   5.8744395334465E-03
(PID.TID 0000.0001) %MON dynstat_uvel_min             =  -2.6374734369710E-02
(PID.TID 0000.0001) %MON dynstat_uvel_mean            =  -1.1606135830201E-07
(PID.TID 0000.0001) %MON dynstat_uvel_sd              =   7.7313733446196E-04
(PID.TID 0000.0001) %MON dynstat_uvel_del2            =   1.1322887735316E-06
(PID.TID 0000.0001) %MON dynstat_vvel_max             =   2.0527810382484E-02
(PID.TID 0000.0001) %MON dynstat_vvel_min             =  -8.4407746864077E-03
(PID.TID 0000.0001) %MON dynstat_vvel_mean            =   1.5307086813199E-05
(PID.TID 0000.0001) %MON dynstat_vvel_sd              =   4.6173076097028E-04
(PID.TID 0000.0001) %MON dynstat_vvel_del2            =   9.2523287466805E-07
(PID.TID 0000.0001) %MON dynstat_wvel_max             =   1.0396556024063E-03
(PID.TID 0000.0001) %MON dynstat_wvel_min             =  -1.0063133685084E-03
(PID.TID 0000.0001) %MON dynstat_wvel_mean            =   7.5989131181297E-09
(PID.TID 0000.0001) %MON dynstat_wvel_sd              =   1.9225741879407E-05
(PID.TID 0000.0001) %MON dynstat_wvel_del2            =   8.0167879272333E-08
(PID.TID 0000.0001) %MON dynstat_theta_max            =   1.2000000000000E+00
(PID.TID 0000.0001) %MON dynstat_theta_min            =  -1.0000000000000E+00
(PID.TID 0000.0001) %MON dynstat_theta_mean           =   5.6869535223877E-01
(PID.TID 0000.0001) %MON dynstat_theta_sd             =   8.6836345315483E-01
(PID.TID 0000.0001) %MON dynstat_theta_del2           =   2.9716561690291E-06
(PID.TID 0000.0001) %MON dynstat_salt_max             =   3.4700000000000E+01
(PID.TID 0000.0001) %MON dynstat_salt_min             =   3.4000000000000E+01
(PID.TID 0000.0001) %MON dynstat_salt_mean            =   3.4499092310452E+01
(PID.TID 0000.0001) %MON dynstat_salt_sd              =   2.7628311644366E-01
(PID.TID 0000.0001) %MON dynstat_salt_del2            =   1.1721359635897E-06
(PID.TID 0000.0001) %MON advcfl_uvel_max              =   2.6374734369710E-03
(PID.TID 0000.0001) %MON advcfl_vvel_max              =   2.0527810382484E-03
(PID.TID 0000.0001) %MON advcfl_wvel_max              =   5.1982780120316E-03
(PID.TID 0000.0001) %MON advcfl_W_hf_max              =   5.1982780120316E-03
(PID.TID 0000.0001) %MON pe_b_mean                    =  -8.3023412573366E-01
(PID.TID 0000.0001) %MON ke_max                       =   2.5096478536860E-04
(PID.TID 0000.0001) %MON ke_mean                      =   3.9965415121498E-07
(PID.TID 0000.0001) %MON ke_vol                       =   4.2724777582215E+12
(PID.TID 0000.0001) // =======================================================
(PID.TID 0000.0001) // End MONITOR dynamic field statistics
(PID.TID 0000.0001) // =======================================================
(PID.TID 0000.0001) // =======================================================
(PID.TID 0000.0001) // Begin OBCS MONITOR field statistics
(PID.TID 0000.0001) // =======================================================
(PID.TID 0000.0001) %MON obc_N_vVel_max               =   1.4984326840513E-05
(PID.TID 0000.0001) %MON obc_N_vVel_min               =   1.4984326840513E-05
(PID.TID 0000.0001) %MON obc_N_vVel_mean              =   1.4984326840513E-05
(PID.TID 0000.0001) %MON obc_N_vVel_sd                =  -4.7304391280376E-24
(PID.TID 0000.0001) %MON obc_N_vVel_Int               =   9.8896557147389E+02
(PID.TID 0000.0001) // =======================================================
(PID.TID 0000.0001) // End OBCS MONITOR field statistics
(PID.TID 0000.0001) // =======================================================
 cg2d: Sum(rhs),rhsMax =   4.51073549608976E+00  2.99937958550089E+02
(PID.TID 0000.0001)      cg2d_init_res =   7.58009813333361E-06
(PID.TID 0000.0001)      cg2d_iters(min,last) =      -1      82
(PID.TID 0000.0001)      cg2d_last_res =   9.57820072000841E-12
(PID.TID 0000.0001) // =======================================================
(PID.TID 0000.0001) // Begin MONITOR dynamic field statistics
(PID.TID 0000.0001) // =======================================================
(PID.TID 0000.0001) %MON time_tsnumber                =                  1103
(PID.TID 0000.0001) %MON time_secondsf                =   1.1030000000000E+05
(PID.TID 0000.0001) %MON dynstat_eta_max              =   5.7981397294685E+00
(PID.TID 0000.0001) %MON dynstat_eta_min              =  -1.4198844481148E+01
(PID.TID 0000.0001) %MON dynstat_eta_mean             =  -2.5054459189937E+00
(PID.TID 0000.0001) %MON dynstat_eta_sd               =   4.9504420923580E+00
(PID.TID 0000.0001) %MON dynstat_eta_del2             =   2.0715308102066E-01
(PID.TID 0000.0001) %MON dynstat_uvel_max             =   5.8886454472500E-03
(PID.TID 0000.0001) %MON dynstat_uvel_min             =  -2.6442962068705E-02
(PID.TID 0000.0001) %MON dynstat_uvel_mean            =  -1.1576248666663E-07
(PID.TID 0000.0001) %MON dynstat_uvel_sd              =   7.7501089447525E-04
(PID.TID 0000.0001) %MON dynstat_uvel_del2            =   1.1349659253362E-06
(PID.TID 0000.0001) %MON dynstat_vvel_max             =   2.0573581379955E-02
(PID.TID 0000.0001) %MON dynstat_vvel_min             =  -8.4632612582212E-03
(PID.TID 0000.0001) %MON dynstat_vvel_mean            =   1.5353179566689E-05
(PID.TID 0000.0001) %MON dynstat_vvel_sd              =   4.6264738752229E-04
(PID.TID 0000.0001) %MON dynstat_vvel_del2            =   9.2718002650368E-07
(PID.TID 0000.0001) %MON dynstat_wvel_max             =   1.0422417121265E-03
(PID.TID 0000.0001) %MON dynstat_wvel_min             =  -1.0087520290416E-03
(PID.TID 0000.0001) %MON dynstat_wvel_mean            =   7.6274229597016E-09
(PID.TID 0000.0001) %MON dynstat_wvel_sd              =   1.9294881086821E-05
(PID.TID 0000.0001) %MON dynstat_wvel_del2            =   8.0504725029254E-08
(PID.TID 0000.0001) %MON dynstat_theta_max            =   1.2000000000000E+00
(PID.TID 0000.0001) %MON dynstat_theta_min            =  -1.0000000000000E+00
(PID.TID 0000.0001) %MON dynstat_theta_mean           =   5.6869443652666E-01
(PID.TID 0000.0001) %MON dynstat_theta_sd             =   8.6836295846808E-01
(PID.TID 0000.0001) %MON dynstat_theta_del2           =   2.9774870626257E-06
(PID.TID 0000.0001) %MON dynstat_salt_max             =   3.4700000000000E+01
(PID.TID 0000.0001) %MON dynstat_salt_min             =   3.4000000000000E+01
(PID.TID 0000.0001) %MON dynstat_salt_mean            =   3.4499091944027E+01
(PID.TID 0000.0001) %MON dynstat_salt_sd              =   2.7628292602670E-01
(PID.TID 0000.0001) %MON dynstat_salt_del2            =   1.1744998288931E-06
(PID.TID 0000.0001) %MON advcfl_uvel_max              =   2.6442962068705E-03
(PID.TID 0000.0001) %MON advcfl_vvel_max              =   2.0573581379955E-03
(PID.TID 0000.0001) %MON advcfl_wvel_max              =   5.2112085606325E-03
(PID.TID 0000.0001) %MON advcfl_W_hf_max              =   5.2112085606325E-03
(PID.TID 0000.0001) %MON pe_b_mean                    =  -8.3023640008313E-01
(PID.TID 0000.0001) %MON ke_max                       =   2.5233584153733E-04
(PID.TID 0000.0001) %MON ke_mean                      =   4.0150001253575E-07
(PID.TID 0000.0001) %MON ke_vol                       =   4.2724777048321E+12
(PID.TID 0000.0001) // =======================================================
(PID.TID 0000.0001) // End MONITOR dynamic field statistics
(PID.TID 0000.0001) // =======================================================
(PID.TID 0000.0001) // =======================================================
(PID.TID 0000.0001) // Begin OBCS MONITOR field statistics
(PID.TID 0000.0001) // =======================================================
(PID.TID 0000.0001) %MON obc_N_vVel_max               =   1.5027421670626E-05
(PID.TID 0000.0001) %MON obc_N_vVel_min               =   1.5027421670626E-05
(PID.TID 0000.0001) %MON obc_N_vVel_mean              =   1.5027421670626E-05
(PID.TID 0000.0001) %MON obc_N_vVel_sd                =  -6.9534870242739E-24
(PID.TID 0000.0001) %MON obc_N_vVel_Int               =   9.9180983026135E+02
(PID.TID 0000.0001) // =======================================================
(PID.TID 0000.0001) // End OBCS MONITOR field statistics
(PID.TID 0000.0001) // =======================================================
 cg2d: Sum(rhs),rhsMax =   4.51075051980901E+00  2.99938043332431E+02
(PID.TID 0000.0001)      cg2d_init_res =   7.61052820110449E-06
(PID.TID 0000.0001)      cg2d_iters(min,last) =      -1      82
(PID.TID 0000.0001)      cg2d_last_res =   9.57998680623280E-12
(PID.TID 0000.0001) // =======================================================
(PID.TID 0000.0001) // Begin MONITOR dynamic field statistics
(PID.TID 0000.0001) // =======================================================
(PID.TID 0000.0001) %MON time_tsnumber                =                  1104
(PID.TID 0000.0001) %MON time_secondsf                =   1.1040000000000E+05
(PID.TID 0000.0001) %MON dynstat_eta_max              =   5.7981187976546E+00
(PID.TID 0000.0001) %MON dynstat_eta_min              =  -1.4198860262119E+01
(PID.TID 0000.0001) %MON dynstat_eta_mean             =  -2.5054549719857E+00
(PID.TID 0000.0001) %MON dynstat_eta_sd               =   4.9504454388321E+00
(PID.TID 0000.0001) %MON dynstat_eta_del2             =   2.0715311369176E-01
(PID.TID 0000.0001) %MON dynstat_uvel_max             =   5.9028783487420E-03
(PID.TID 0000.0001) %MON dynstat_uvel_min             =  -2.6511305522815E-02
(PID.TID 0000.0001) %MON dynstat_uvel_mean            =  -1.1548556344080E-07
(PID.TID 0000.0001) %MON dynstat_uvel_sd              =   7.7688829990338E-04
(PID.TID 0000.0001) %MON dynstat_uvel_del2            =   1.1376502472589E-06
(PID.TID 0000.0001) %MON dynstat_vvel_max             =   2.0619397721394E-02
(PID.TID 0000.0001) %MON dynstat_vvel_min             =  -8.4858028611148E-03
(PID.TID 0000.0001) %MON dynstat_vvel_mean            =   1.5395913915107E-05
(PID.TID 0000.0001) %MON dynstat_vvel_sd              =   4.6356040853994E-04
(PID.TID 0000.0001) %MON dynstat_vvel_del2            =   9.2911172958886E-07
(PID.TID 0000.0001) %MON dynstat_wvel_max             =   1.0448314917612E-03
(PID.TID 0000.0001) %MON dynstat_wvel_min             =  -1.0111942015864E-03
(PID.TID 0000.0001) %MON dynstat_wvel_mean            =   7.6481090501742E-09
(PID.TID 0000.0001) %MON dynstat_wvel_sd              =   1.9342205780477E-05
(PID.TID 0000.0001) %MON dynstat_wvel_del2            =   8.0781481856496E-08
(PID.TID 0000.0001) %MON dynstat_theta_max            =   1.2000000000000E+00
(PID.TID 0000.0001) %MON dynstat_theta_min            =  -1.0000000000000E+00
(PID.TID 0000.0001) %MON dynstat_theta_mean           =   5.6869351916851E-01
(PID.TID 0000.0001) %MON dynstat_theta_sd             =   8.6836246287326E-01
(PID.TID 0000.0001) %MON dynstat_theta_del2           =   2.9833543273562E-06
(PID.TID 0000.0001) %MON dynstat_salt_max             =   3.4700000000000E+01
(PID.TID 0000.0001) %MON dynstat_salt_min             =   3.4000000000000E+01
(PID.TID 0000.0001) %MON dynstat_salt_mean            =   3.4499091576940E+01
(PID.TID 0000.0001) %MON dynstat_salt_sd              =   2.7628273525941E-01
(PID.TID 0000.0001) %MON dynstat_salt_del2            =   1.1768742998237E-06
(PID.TID 0000.0001) %MON advcfl_uvel_max              =   2.6511305522815E-03
(PID.TID 0000.0001) %MON advcfl_vvel_max              =   2.0619397721394E-03
(PID.TID 0000.0001) %MON advcfl_wvel_max              =   5.2241574588061E-03
(PID.TID 0000.0001) %MON advcfl_W_hf_max              =   5.2241574588061E-03
(PID.TID 0000.0001) %MON pe_b_mean                    =  -8.3023868017324E-01
(PID.TID 0000.0001) %MON ke_max                       =   2.5371332670345E-04
(PID.TID 0000.0001) %MON ke_mean                      =   4.0335136241212E-07
(PID.TID 0000.0001) %MON ke_vol                       =   4.2724776512412E+12
(PID.TID 0000.0001) // =======================================================
(PID.TID 0000.0001) // End MONITOR dynamic field statistics
(PID.TID 0000.0001) // =======================================================
(PID.TID 0000.0001) // =======================================================
(PID.TID 0000.0001) // Begin OBCS MONITOR field statistics
(PID.TID 0000.0001) // =======================================================
(PID.TID 0000.0001) %MON obc_N_vVel_max               =   1.5067828484729E-05
(PID.TID 0000.0001) %MON obc_N_vVel_min               =   1.5067828484729E-05
(PID.TID 0000.0001) %MON obc_N_vVel_mean              =   1.5067828484729E-05
(PID.TID 0000.0001) %MON obc_N_vVel_sd                =  -1.3674329501267E-23
(PID.TID 0000.0001) %MON obc_N_vVel_Int               =   9.9447667999210E+02
(PID.TID 0000.0001) // =======================================================
(PID.TID 0000.0001) // End OBCS MONITOR field statistics
(PID.TID 0000.0001) // =======================================================
 cg2d: Sum(rhs),rhsMax =   4.51076557466717E+00  2.99938129326163E+02
(PID.TID 0000.0001)      cg2d_init_res =   7.63664838395766E-06
(PID.TID 0000.0001)      cg2d_iters(min,last) =      -1      82
(PID.TID 0000.0001)      cg2d_last_res =   9.58132161639682E-12
(PID.TID 0000.0001) // =======================================================
(PID.TID 0000.0001) // Begin MONITOR dynamic field statistics
(PID.TID 0000.0001) // =======================================================
(PID.TID 0000.0001) %MON time_tsnumber                =                  1105
(PID.TID 0000.0001) %MON time_secondsf                =   1.1050000000000E+05
(PID.TID 0000.0001) %MON dynstat_eta_max              =   5.7980978119478E+00
(PID.TID 0000.0001) %MON dynstat_eta_min              =  -1.4198876088012E+01
(PID.TID 0000.0001) %MON dynstat_eta_mean             =  -2.5054640523973E+00
(PID.TID 0000.0001) %MON dynstat_eta_sd               =   4.9504487916634E+00
(PID.TID 0000.0001) %MON dynstat_eta_del2             =   2.0715314642575E-01
(PID.TID 0000.0001) %MON dynstat_uvel_max             =   5.9171382991607E-03
(PID.TID 0000.0001) %MON dynstat_uvel_min             =  -2.6579764788602E-02
(PID.TID 0000.0001) %MON dynstat_uvel_mean            =  -1.1523387813696E-07
(PID.TID 0000.0001) %MON dynstat_uvel_sd              =   7.7876954891461E-04
(PID.TID 0000.0001) %MON dynstat_uvel_del2            =   1.1403417426566E-06
(PID.TID 0000.0001) %MON dynstat_vvel_max             =   2.0665259152182E-02
(PID.TID 0000.0001) %MON dynstat_vvel_min             =  -8.5083996856596E-03
(PID.TID 0000.0001) %MON dynstat_vvel_mean            =   1.5434791291021E-05
(PID.TID 0000.0001) %MON dynstat_vvel_sd              =   4.6446962718175E-04
(PID.TID 0000.0001) %MON dynstat_vvel_del2            =   9.3102591318392E-07
(PID.TID 0000.0001) %MON dynstat_wvel_max             =   1.0474249340513E-03
(PID.TID 0000.0001) %MON dynstat_wvel_min             =  -1.0136398766022E-03
(PID.TID 0000.0001) %MON dynstat_wvel_mean            =   7.6607436581102E-09
(PID.TID 0000.0001) %MON dynstat_wvel_sd              =   1.9366931506361E-05
(PID.TID 0000.0001) %MON dynstat_wvel_del2            =   8.0987771771676E-08
(PID.TID 0000.0001) %MON dynstat_theta_max            =   1.2000000000000E+00
(PID.TID 0000.0001) %MON dynstat_theta_min            =  -1.0000000000000E+00
(PID.TID 0000.0001) %MON dynstat_theta_mean           =   5.6869260016009E-01
(PID.TID 0000.0001) %MON dynstat_theta_sd             =   8.6836196637468E-01
(PID.TID 0000.0001) %MON dynstat_theta_del2           =   2.9892617871082E-06
(PID.TID 0000.0001) %MON dynstat_salt_max             =   3.4700000000000E+01
(PID.TID 0000.0001) %MON dynstat_salt_min             =   3.4000000000000E+01
(PID.TID 0000.0001) %MON dynstat_salt_mean            =   3.4499091209192E+01
(PID.TID 0000.0001) %MON dynstat_salt_sd              =   2.7628254414339E-01
(PID.TID 0000.0001) %MON dynstat_salt_del2            =   1.1792604490968E-06
(PID.TID 0000.0001) %MON advcfl_uvel_max              =   2.6579764788602E-03
(PID.TID 0000.0001) %MON advcfl_vvel_max              =   2.0665259152182E-03
(PID.TID 0000.0001) %MON advcfl_wvel_max              =   5.2371246702563E-03
(PID.TID 0000.0001) %MON advcfl_W_hf_max              =   5.2371246702563E-03
(PID.TID 0000.0001) %MON pe_b_mean                    =  -8.3024096497881E-01
(PID.TID 0000.0001) %MON ke_max                       =   2.5509726566020E-04
(PID.TID 0000.0001) %MON ke_mean                      =   4.0520811131417E-07
(PID.TID 0000.0001) %MON ke_vol                       =   4.2724775974664E+12
(PID.TID 0000.0001) // =======================================================
(PID.TID 0000.0001) // End MONITOR dynamic field statistics
(PID.TID 0000.0001) // =======================================================
(PID.TID 0000.0001) // =======================================================
(PID.TID 0000.0001) // Begin OBCS MONITOR field statistics
(PID.TID 0000.0001) // =======================================================
(PID.TID 0000.0001) %MON obc_N_vVel_max               =   1.5105075406581E-05
(PID.TID 0000.0001) %MON obc_N_vVel_min               =   1.5105075406580E-05
(PID.TID 0000.0001) %MON obc_N_vVel_mean              =   1.5105075406581E-05
(PID.TID 0000.0001) %MON obc_N_vVel_sd                =  -7.2119809656967E-24
(PID.TID 0000.0001) %MON obc_N_vVel_Int               =   9.9693497683431E+02
(PID.TID 0000.0001) // =======================================================
(PID.TID 0000.0001) // End OBCS MONITOR field statistics
(PID.TID 0000.0001) // =======================================================
 cg2d: Sum(rhs),rhsMax =   4.51078065546675E+00  2.99938216397375E+02
(PID.TID 0000.0001)      cg2d_init_res =   7.65824979419843E-06
(PID.TID 0000.0001)      cg2d_iters(min,last) =      -1      82
(PID.TID 0000.0001)      cg2d_last_res =   9.58217775574099E-12
(PID.TID 0000.0001) // =======================================================
(PID.TID 0000.0001) // Begin MONITOR dynamic field statistics
(PID.TID 0000.0001) // =======================================================
(PID.TID 0000.0001) %MON time_tsnumber                =                  1106
(PID.TID 0000.0001) %MON time_secondsf                =   1.1060000000000E+05
(PID.TID 0000.0001) %MON dynstat_eta_max              =   5.7980767809234E+00
(PID.TID 0000.0001) %MON dynstat_eta_min              =  -1.4198891951393E+01
(PID.TID 0000.0001) %MON dynstat_eta_mean             =  -2.5054731562231E+00
(PID.TID 0000.0001) %MON dynstat_eta_sd               =   4.9504521491629E+00
(PID.TID 0000.0001) %MON dynstat_eta_del2             =   2.0715317922083E-01
(PID.TID 0000.0001) %MON dynstat_uvel_max             =   5.9314253563798E-03
(PID.TID 0000.0001) %MON dynstat_uvel_min             =  -2.6648339922180E-02
(PID.TID 0000.0001) %MON dynstat_uvel_mean            =  -1.1500554884528E-07
(PID.TID 0000.0001) %MON dynstat_uvel_sd              =   7.8065463818330E-04
(PID.TID 0000.0001) %MON dynstat_uvel_del2            =   1.1430404079709E-06
(PID.TID 0000.0001) %MON dynstat_vvel_max             =   2.0711165420608E-02
(PID.TID 0000.0001) %MON dynstat_vvel_min             =  -8.5310519075108E-03
(PID.TID 0000.0001) %MON dynstat_vvel_mean            =   1.5469360439243E-05
(PID.TID 0000.0001) %MON dynstat_vvel_sd              =   4.6537511776210E-04
(PID.TID 0000.0001) %MON dynstat_vvel_del2            =   9.3292201944186E-07
(PID.TID 0000.0001) %MON dynstat_wvel_max             =   1.0500220317759E-03
(PID.TID 0000.0001) %MON dynstat_wvel_min             =  -1.0160890454128E-03
(PID.TID 0000.0001) %MON dynstat_wvel_mean            =   7.6651995666962E-09
(PID.TID 0000.0001) %MON dynstat_wvel_sd              =   1.9369437364458E-05
(PID.TID 0000.0001) %MON dynstat_wvel_del2            =   8.1118149065379E-08
(PID.TID 0000.0001) %MON dynstat_theta_max            =   1.2000000000000E+00
(PID.TID 0000.0001) %MON dynstat_theta_min            =  -1.0000000000000E+00
(PID.TID 0000.0001) %MON dynstat_theta_mean           =   5.6869167949737E-01
(PID.TID 0000.0001) %MON dynstat_theta_sd             =   8.6836146897575E-01
(PID.TID 0000.0001) %MON dynstat_theta_del2           =   2.9952114963404E-06
(PID.TID 0000.0001) %MON dynstat_salt_max             =   3.4700000000000E+01
(PID.TID 0000.0001) %MON dynstat_salt_min             =   3.4000000000000E+01
(PID.TID 0000.0001) %MON dynstat_salt_mean            =   3.4499090840779E+01
(PID.TID 0000.0001) %MON dynstat_salt_sd              =   2.7628235267948E-01
(PID.TID 0000.0001) %MON dynstat_salt_del2            =   1.1816588796646E-06
(PID.TID 0000.0001) %MON advcfl_uvel_max              =   2.6648339922180E-03
(PID.TID 0000.0001) %MON advcfl_vvel_max              =   2.0711165420608E-03
(PID.TID 0000.0001) %MON advcfl_wvel_max              =   5.2501101588795E-03
(PID.TID 0000.0001) %MON advcfl_W_hf_max              =   5.2501101588795E-03
(PID.TID 0000.0001) %MON pe_b_mean                    =  -8.3024325336352E-01
(PID.TID 0000.0001) %MON ke_max                       =   2.5648768324489E-04
(PID.TID 0000.0001) %MON ke_mean                      =   4.0707029479338E-07
(PID.TID 0000.0001) %MON ke_vol                       =   4.2724775435288E+12
(PID.TID 0000.0001) // =======================================================
(PID.TID 0000.0001) // End MONITOR dynamic field statistics
(PID.TID 0000.0001) // =======================================================
(PID.TID 0000.0001) // =======================================================
(PID.TID 0000.0001) // Begin OBCS MONITOR field statistics
(PID.TID 0000.0001) // =======================================================
(PID.TID 0000.0001) %MON obc_N_vVel_max               =   1.5138729252244E-05
(PID.TID 0000.0001) %MON obc_N_vVel_min               =   1.5138729252243E-05
(PID.TID 0000.0001) %MON obc_N_vVel_mean              =   1.5138729252243E-05
(PID.TID 0000.0001) %MON obc_N_vVel_sd                =   3.3223021082909E-12
(PID.TID 0000.0001) %MON obc_N_vVel_Int               =   9.9915613064807E+02
(PID.TID 0000.0001) // =======================================================
(PID.TID 0000.0001) // End OBCS MONITOR field statistics
(PID.TID 0000.0001) // =======================================================
 cg2d: Sum(rhs),rhsMax =   4.51079575636149E+00  2.99938304403704E+02
(PID.TID 0000.0001)      cg2d_init_res =   7.67521238085547E-06
(PID.TID 0000.0001)      cg2d_iters(min,last) =      -1      82
(PID.TID 0000.0001)      cg2d_last_res =   9.58245821626334E-12
(PID.TID 0000.0001) // =======================================================
(PID.TID 0000.0001) // Begin MONITOR dynamic field statistics
(PID.TID 0000.0001) // =======================================================
(PID.TID 0000.0001) %MON time_tsnumber                =                  1107
(PID.TID 0000.0001) %MON time_secondsf                =   1.1070000000000E+05
(PID.TID 0000.0001) %MON dynstat_eta_max              =   5.7980557137820E+00
(PID.TID 0000.0001) %MON dynstat_eta_min              =  -1.4198907844104E+01
(PID.TID 0000.0001) %MON dynstat_eta_mean             =  -2.5054822790268E+00
(PID.TID 0000.0001) %MON dynstat_eta_sd               =   4.9504555095469E+00
(PID.TID 0000.0001) %MON dynstat_eta_del2             =   2.0715321207517E-01
(PID.TID 0000.0001) %MON dynstat_uvel_max             =   5.9457395744857E-03
(PID.TID 0000.0001) %MON dynstat_uvel_min             =  -2.6717030980702E-02
(PID.TID 0000.0001) %MON dynstat_uvel_mean            =  -1.1479457039019E-07
(PID.TID 0000.0001) %MON dynstat_uvel_sd              =   7.8254356307651E-04
(PID.TID 0000.0001) %MON dynstat_uvel_del2            =   1.1457462334494E-06
(PID.TID 0000.0001) %MON dynstat_vvel_max             =   2.0757116279882E-02
(PID.TID 0000.0001) %MON dynstat_vvel_min             =  -8.5537596874712E-03
(PID.TID 0000.0001) %MON dynstat_vvel_mean            =   1.5499223218832E-05
(PID.TID 0000.0001) %MON dynstat_vvel_sd              =   4.6627721682630E-04
(PID.TID 0000.0001) %MON dynstat_vvel_del2            =   9.3480098977151E-07
(PID.TID 0000.0001) %MON dynstat_wvel_max             =   1.0526227777200E-03
(PID.TID 0000.0001) %MON dynstat_wvel_min             =  -1.0185417002741E-03
(PID.TID 0000.0001) %MON dynstat_wvel_mean            =   7.6614518374484E-09
(PID.TID 0000.0001) %MON dynstat_wvel_sd              =   1.9351231046875E-05
(PID.TID 0000.0001) %MON dynstat_wvel_del2            =   8.1172159492238E-08
(PID.TID 0000.0001) %MON dynstat_theta_max            =   1.2000000000000E+00
(PID.TID 0000.0001) %MON dynstat_theta_min            =  -1.0000000000000E+00
(PID.TID 0000.0001) %MON dynstat_theta_mean           =   5.6869075717643E-01
(PID.TID 0000.0001) %MON dynstat_theta_sd             =   8.6836097067842E-01
(PID.TID 0000.0001) %MON dynstat_theta_del2           =   3.0012037233605E-06
(PID.TID 0000.0001) %MON dynstat_salt_max             =   3.4700000000000E+01
(PID.TID 0000.0001) %MON dynstat_salt_min             =   3.4000000000000E+01
(PID.TID 0000.0001) %MON dynstat_salt_mean            =   3.4499090471701E+01
(PID.TID 0000.0001) %MON dynstat_salt_sd              =   2.7628216086832E-01
(PID.TID 0000.0001) %MON dynstat_salt_del2            =   1.1840698787824E-06
(PID.TID 0000.0001) %MON advcfl_uvel_max              =   2.6717030980702E-03
(PID.TID 0000.0001) %MON advcfl_vvel_max              =   2.0757116279882E-03
(PID.TID 0000.0001) %MON advcfl_wvel_max              =   5.2631138886002E-03
(PID.TID 0000.0001) %MON advcfl_W_hf_max              =   5.2631138886002E-03
(PID.TID 0000.0001) %MON pe_b_mean                    =  -8.3024554409389E-01
(PID.TID 0000.0001) %MON ke_max                       =   2.5788460436548E-04
(PID.TID 0000.0001) %MON ke_mean                      =   4.0893807079713E-07
(PID.TID 0000.0001) %MON ke_vol                       =   4.2724774894520E+12
(PID.TID 0000.0001) // =======================================================
(PID.TID 0000.0001) // End MONITOR dynamic field statistics
(PID.TID 0000.0001) // =======================================================
(PID.TID 0000.0001) // =======================================================
(PID.TID 0000.0001) // Begin OBCS MONITOR field statistics
(PID.TID 0000.0001) // =======================================================
(PID.TID 0000.0001) %MON obc_N_vVel_max               =   1.5168401074985E-05
(PID.TID 0000.0001) %MON obc_N_vVel_min               =   1.5168401074984E-05
(PID.TID 0000.0001) %MON obc_N_vVel_mean              =   1.5168401074985E-05
(PID.TID 0000.0001) %MON obc_N_vVel_sd                =   5.3323853533396E-13
(PID.TID 0000.0001) %MON obc_N_vVel_Int               =   1.0011144709490E+03
(PID.TID 0000.0001) // =======================================================
(PID.TID 0000.0001) // End OBCS MONITOR field statistics
(PID.TID 0000.0001) // =======================================================
 cg2d: Sum(rhs),rhsMax =   4.51081087093063E+00  2.99938393195807E+02
(PID.TID 0000.0001)      cg2d_init_res =   7.68752159538082E-06
(PID.TID 0000.0001)      cg2d_iters(min,last) =      -1      82
(PID.TID 0000.0001)      cg2d_last_res =   9.58199471899606E-12
(PID.TID 0000.0001) // =======================================================
(PID.TID 0000.0001) // Begin MONITOR dynamic field statistics
(PID.TID 0000.0001) // =======================================================
(PID.TID 0000.0001) %MON time_tsnumber                =                  1108
(PID.TID 0000.0001) %MON time_secondsf                =   1.1080000000000E+05
(PID.TID 0000.0001) %MON dynstat_eta_max              =   5.7980346201960E+00
(PID.TID 0000.0001) %MON dynstat_eta_min              =  -1.4198923757336E+01
(PID.TID 0000.0001) %MON dynstat_eta_mean             =  -2.5054914159947E+00
(PID.TID 0000.0001) %MON dynstat_eta_sd               =   4.9504588709610E+00
(PID.TID 0000.0001) %MON dynstat_eta_del2             =   2.0715324498710E-01
(PID.TID 0000.0001) %MON dynstat_uvel_max             =   5.9600810029607E-03
(PID.TID 0000.0001) %MON dynstat_uvel_min             =  -2.6785838024042E-02
(PID.TID 0000.0001) %MON dynstat_uvel_mean            =  -1.1459221206146E-07
(PID.TID 0000.0001) %MON dynstat_uvel_sd              =   7.8443631784457E-04
(PID.TID 0000.0001) %MON dynstat_uvel_del2            =   1.1484592053722E-06
(PID.TID 0000.0001) %MON dynstat_vvel_max             =   2.0803111490412E-02
(PID.TID 0000.0001) %MON dynstat_vvel_min             =  -8.5765231722075E-03
(PID.TID 0000.0001) %MON dynstat_vvel_mean            =   1.5524039773356E-05
(PID.TID 0000.0001) %MON dynstat_vvel_sd              =   4.6717650028602E-04
(PID.TID 0000.0001) %MON dynstat_vvel_del2            =   9.3666515016809E-07
(PID.TID 0000.0001) %MON dynstat_wvel_max             =   1.0552271646435E-03
(PID.TID 0000.0001) %MON dynstat_wvel_min             =  -1.0209978341867E-03
(PID.TID 0000.0001) %MON dynstat_wvel_mean            =   7.6495793804061E-09
(PID.TID 0000.0001) %MON dynstat_wvel_sd              =   1.9314864167191E-05
(PID.TID 0000.0001) %MON dynstat_wvel_del2            =   8.1154105614162E-08
(PID.TID 0000.0001) %MON dynstat_theta_max            =   1.2000000000000E+00
(PID.TID 0000.0001) %MON dynstat_theta_min            =  -1.0000000000000E+00
(PID.TID 0000.0001) %MON dynstat_theta_mean           =   5.6868983319342E-01
(PID.TID 0000.0001) %MON dynstat_theta_sd             =   8.6836047148466E-01
(PID.TID 0000.0001) %MON dynstat_theta_del2           =   3.0072370392612E-06
(PID.TID 0000.0001) %MON dynstat_salt_max             =   3.4700000000000E+01
(PID.TID 0000.0001) %MON dynstat_salt_min             =   3.4000000000000E+01
(PID.TID 0000.0001) %MON dynstat_salt_mean            =   3.4499090101956E+01
(PID.TID 0000.0001) %MON dynstat_salt_sd              =   2.7628196871048E-01
(PID.TID 0000.0001) %MON dynstat_salt_del2            =   1.1864932107309E-06
(PID.TID 0000.0001) %MON advcfl_uvel_max              =   2.6785838024042E-03
(PID.TID 0000.0001) %MON advcfl_vvel_max              =   2.0803111490412E-03
(PID.TID 0000.0001) %MON advcfl_wvel_max              =   5.2761358232176E-03
(PID.TID 0000.0001) %MON advcfl_W_hf_max              =   5.2761358232176E-03
(PID.TID 0000.0001) %MON pe_b_mean                    =  -8.3024783585414E-01
(PID.TID 0000.0001) %MON ke_max                       =   2.5928805403627E-04
(PID.TID 0000.0001) %MON ke_mean                      =   4.1081171040473E-07
(PID.TID 0000.0001) %MON ke_vol                       =   4.2724774352626E+12
(PID.TID 0000.0001) // =======================================================
(PID.TID 0000.0001) // End MONITOR dynamic field statistics
(PID.TID 0000.0001) // =======================================================
(PID.TID 0000.0001) // =======================================================
(PID.TID 0000.0001) // Begin OBCS MONITOR field statistics
(PID.TID 0000.0001) // =======================================================
(PID.TID 0000.0001) %MON obc_N_vVel_max               =   1.5193751127940E-05
(PID.TID 0000.0001) %MON obc_N_vVel_min               =   1.5193751127939E-05
(PID.TID 0000.0001) %MON obc_N_vVel_mean              =   1.5193751127939E-05
(PID.TID 0000.0001) %MON obc_N_vVel_sd                =   4.5218216203810E-12
(PID.TID 0000.0001) %MON obc_N_vVel_Int               =   1.0027875744440E+03
(PID.TID 0000.0001) // =======================================================
(PID.TID 0000.0001) // End OBCS MONITOR field statistics
(PID.TID 0000.0001) // =======================================================
 cg2d: Sum(rhs),rhsMax =   4.51082599225060E+00  2.99938482619471E+02
(PID.TID 0000.0001)      cg2d_init_res =   7.69522570261066E-06
(PID.TID 0000.0001)      cg2d_iters(min,last) =      -1      82
(PID.TID 0000.0001)      cg2d_last_res =   9.58065055574716E-12
(PID.TID 0000.0001) // =======================================================
(PID.TID 0000.0001) // Begin MONITOR dynamic field statistics
(PID.TID 0000.0001) // =======================================================
(PID.TID 0000.0001) %MON time_tsnumber                =                  1109
(PID.TID 0000.0001) %MON time_secondsf                =   1.1090000000000E+05
(PID.TID 0000.0001) %MON dynstat_eta_max              =   5.7980135101981E+00
(PID.TID 0000.0001) %MON dynstat_eta_min              =  -1.4198939681720E+01
(PID.TID 0000.0001) %MON dynstat_eta_mean             =  -2.5055005619928E+00
(PID.TID 0000.0001) %MON dynstat_eta_sd               =   4.9504622315010E+00
(PID.TID 0000.0001) %MON dynstat_eta_del2             =   2.0715327795497E-01
(PID.TID 0000.0001) %MON dynstat_uvel_max             =   5.9744496865015E-03
(PID.TID 0000.0001) %MON dynstat_uvel_min             =  -2.6854761116588E-02
(PID.TID 0000.0001) %MON dynstat_uvel_mean            =  -1.1438858052696E-07
(PID.TID 0000.0001) %MON dynstat_uvel_sd              =   7.8633289589926E-04
(PID.TID 0000.0001) %MON dynstat_uvel_del2            =   1.1511793065170E-06
(PID.TID 0000.0001) %MON dynstat_vvel_max             =   2.0849150822132E-02
(PID.TID 0000.0001) %MON dynstat_vvel_min             =  -8.5993424947191E-03
(PID.TID 0000.0001) %MON dynstat_vvel_mean            =   1.5543532991972E-05
(PID.TID 0000.0001) %MON dynstat_vvel_sd              =   4.6807374820458E-04
(PID.TID 0000.0001) %MON dynstat_vvel_del2            =   9.3851801034822E-07
(PID.TID 0000.0001) %MON dynstat_wvel_max             =   1.0578351852224E-03
(PID.TID 0000.0001) %MON dynstat_wvel_min             =  -1.0234574409291E-03
(PID.TID 0000.0001) %MON dynstat_wvel_mean            =   7.6297632144533E-09
(PID.TID 0000.0001) %MON dynstat_wvel_sd              =   1.9263800167507E-05
(PID.TID 0000.0001) %MON dynstat_wvel_del2            =   8.1072551021376E-08
(PID.TID 0000.0001) %MON dynstat_theta_max            =   1.2000000000000E+00
(PID.TID 0000.0001) %MON dynstat_theta_min            =  -1.0000000000000E+00
(PID.TID 0000.0001) %MON dynstat_theta_mean           =   5.6868890754425E-01
(PID.TID 0000.0001) %MON dynstat_theta_sd             =   8.6835997139629E-01
(PID.TID 0000.0001) %MON dynstat_theta_del2           =   3.0133084582239E-06
(PID.TID 0000.0001) %MON dynstat_salt_max             =   3.4700000000000E+01
(PID.TID 0000.0001) %MON dynstat_salt_min             =   3.4000000000000E+01
(PID.TID 0000.0001) %MON dynstat_salt_mean            =   3.4499089731544E+01
(PID.TID 0000.0001) %MON dynstat_salt_sd              =   2.7628177620630E-01
(PID.TID 0000.0001) %MON dynstat_salt_del2            =   1.1889282260628E-06
(PID.TID 0000.0001) %MON advcfl_uvel_max              =   2.6854761116588E-03
(PID.TID 0000.0001) %MON advcfl_vvel_max              =   2.0849150822132E-03
(PID.TID 0000.0001) %MON advcfl_wvel_max              =   5.2891759261119E-03
(PID.TID 0000.0001) %MON advcfl_W_hf_max              =   5.2891759261119E-03
(PID.TID 0000.0001) %MON pe_b_mean                    =  -8.3025012726224E-01
(PID.TID 0000.0001) %MON ke_max                       =   2.6069805741475E-04
(PID.TID 0000.0001) %MON ke_mean                      =   4.1269158270617E-07
(PID.TID 0000.0001) %MON ke_vol                       =   4.2724773809890E+12
(PID.TID 0000.0001) // =======================================================
(PID.TID 0000.0001) // End MONITOR dynamic field statistics
(PID.TID 0000.0001) // =======================================================
(PID.TID 0000.0001) // =======================================================
(PID.TID 0000.0001) // Begin OBCS MONITOR field statistics
(PID.TID 0000.0001) // =======================================================
(PID.TID 0000.0001) %MON obc_N_vVel_max               =   1.5214493370959E-05
(PID.TID 0000.0001) %MON obc_N_vVel_min               =   1.5214493370959E-05
(PID.TID 0000.0001) %MON obc_N_vVel_mean              =   1.5214493370959E-05
(PID.TID 0000.0001) %MON obc_N_vVel_sd                =   2.6564797384590E-12
(PID.TID 0000.0001) %MON obc_N_vVel_Int               =   1.0041565624833E+03
(PID.TID 0000.0001) // =======================================================
(PID.TID 0000.0001) // End OBCS MONITOR field statistics
(PID.TID 0000.0001) // =======================================================
 cg2d: Sum(rhs),rhsMax =   4.51084111298868E+00  2.99938572517301E+02
(PID.TID 0000.0001)      cg2d_init_res =   7.69846830348372E-06
(PID.TID 0000.0001)      cg2d_iters(min,last) =      -1      82
(PID.TID 0000.0001)      cg2d_last_res =   9.57829891435989E-12
(PID.TID 0000.0001) // =======================================================
(PID.TID 0000.0001) // Begin MONITOR dynamic field statistics
(PID.TID 0000.0001) // =======================================================
(PID.TID 0000.0001) %MON time_tsnumber                =                  1110
(PID.TID 0000.0001) %MON time_secondsf                =   1.1100000000000E+05
(PID.TID 0000.0001) %MON dynstat_eta_max              =   5.7979923940431E+00
(PID.TID 0000.0001) %MON dynstat_eta_min              =  -1.4198955607481E+01
(PID.TID 0000.0001) %MON dynstat_eta_mean             =  -2.5055097116337E+00
(PID.TID 0000.0001) %MON dynstat_eta_sd               =   4.9504655892365E+00
(PID.TID 0000.0001) %MON dynstat_eta_del2             =   2.0715331097701E-01
(PID.TID 0000.0001) %MON dynstat_uvel_max             =   5.9888456644330E-03
(PID.TID 0000.0001) %MON dynstat_uvel_min             =  -2.6923800328921E-02
(PID.TID 0000.0001) %MON dynstat_uvel_mean            =  -1.1417414419753E-07
(PID.TID 0000.0001) %MON dynstat_uvel_sd              =   7.8823329006011E-04
(PID.TID 0000.0001) %MON dynstat_uvel_del2            =   1.1539065159086E-06
(PID.TID 0000.0001) %MON dynstat_vvel_max             =   2.0895234056556E-02
(PID.TID 0000.0001) %MON dynstat_vvel_min             =  -8.6222177754234E-03
(PID.TID 0000.0001) %MON dynstat_vvel_mean            =   1.5557492172365E-05
(PID.TID 0000.0001) %MON dynstat_vvel_sd              =   4.6896989935675E-04
(PID.TID 0000.0001) %MON dynstat_vvel_del2            =   9.4036399109345E-07
(PID.TID 0000.0001) %MON dynstat_wvel_max             =   1.0604468320105E-03
(PID.TID 0000.0001) %MON dynstat_wvel_min             =  -1.0259205148602E-03
(PID.TID 0000.0001) %MON dynstat_wvel_mean            =   7.6022853245530E-09
(PID.TID 0000.0001) %MON dynstat_wvel_sd              =   1.9202237987952E-05
(PID.TID 0000.0001) %MON dynstat_wvel_del2            =   8.0939601560558E-08
(PID.TID 0000.0001) %MON dynstat_theta_max            =   1.2000000000000E+00
(PID.TID 0000.0001) %MON dynstat_theta_min            =  -1.0000000000000E+00
(PID.TID 0000.0001) %MON dynstat_theta_mean           =   5.6868798022498E-01
(PID.TID 0000.0001) %MON dynstat_theta_sd             =   8.6835947041296E-01
(PID.TID 0000.0001) %MON dynstat_theta_del2           =   3.0194139337746E-06
(PID.TID 0000.0001) %MON dynstat_salt_max             =   3.4700000000000E+01
(PID.TID 0000.0001) %MON dynstat_salt_min             =   3.4000000000000E+01
(PID.TID 0000.0001) %MON dynstat_salt_mean            =   3.4499089360462E+01
(PID.TID 0000.0001) %MON dynstat_salt_sd              =   2.7628158335578E-01
(PID.TID 0000.0001) %MON dynstat_salt_del2            =   1.1913740186919E-06
(PID.TID 0000.0001) %MON advcfl_uvel_max              =   2.6923800328921E-03
(PID.TID 0000.0001) %MON advcfl_vvel_max              =   2.0895234056556E-03
(PID.TID 0000.0001) %MON advcfl_wvel_max              =   5.3022341600524E-03
(PID.TID 0000.0001) %MON advcfl_W_hf_max              =   5.3022341600523E-03
(PID.TID 0000.0001) %MON pe_b_mean                    =  -8.3025241688736E-01
(PID.TID 0000.0001) %MON ke_max                       =   2.6211463983688E-04
(PID.TID 0000.0001) %MON ke_mean                      =   4.1457813465497E-07
(PID.TID 0000.0001) %MON ke_vol                       =   4.2724773266618E+12
(PID.TID 0000.0001) // =======================================================
(PID.TID 0000.0001) // End MONITOR dynamic field statistics
(PID.TID 0000.0001) // =======================================================
(PID.TID 0000.0001) // =======================================================
(PID.TID 0000.0001) // Begin OBCS MONITOR field statistics
(PID.TID 0000.0001) // =======================================================
(PID.TID 0000.0001) %MON obc_N_vVel_max               =   1.5230399106683E-05
(PID.TID 0000.0001) %MON obc_N_vVel_min               =   1.5230399106682E-05
(PID.TID 0000.0001) %MON obc_N_vVel_mean              =   1.5230399106682E-05
(PID.TID 0000.0001) %MON obc_N_vVel_sd                =   2.4699103258172E-12
(PID.TID 0000.0001) %MON obc_N_vVel_Int               =   1.0052063410410E+03
(PID.TID 0000.0001) // =======================================================
(PID.TID 0000.0001) // End OBCS MONITOR field statistics
(PID.TID 0000.0001) // =======================================================
 cg2d: Sum(rhs),rhsMax =   4.51085622549383E+00  2.99938662730751E+02
(PID.TID 0000.0001)      cg2d_init_res =   7.69746850357052E-06
(PID.TID 0000.0001)      cg2d_iters(min,last) =      -1      82
(PID.TID 0000.0001)      cg2d_last_res =   9.57484223376499E-12
(PID.TID 0000.0001) // =======================================================
(PID.TID 0000.0001) // Begin MONITOR dynamic field statistics
(PID.TID 0000.0001) // =======================================================
(PID.TID 0000.0001) %MON time_tsnumber                =                  1111
(PID.TID 0000.0001) %MON time_secondsf                =   1.1110000000000E+05
(PID.TID 0000.0001) %MON dynstat_eta_max              =   5.7979712821125E+00
(PID.TID 0000.0001) %MON dynstat_eta_min              =  -1.4198971524523E+01
(PID.TID 0000.0001) %MON dynstat_eta_mean             =  -2.5055188593432E+00
(PID.TID 0000.0001) %MON dynstat_eta_sd               =   4.9504689422333E+00
(PID.TID 0000.0001) %MON dynstat_eta_del2             =   2.0715334405150E-01
(PID.TID 0000.0001) %MON dynstat_uvel_max             =   6.0032689703426E-03
(PID.TID 0000.0001) %MON dynstat_uvel_min             =  -2.6992955739218E-02
(PID.TID 0000.0001) %MON dynstat_uvel_mean            =  -1.1394106869920E-07
(PID.TID 0000.0001) %MON dynstat_uvel_sd              =   7.9013749291335E-04
(PID.TID 0000.0001) %MON dynstat_uvel_del2            =   1.1566408136240E-06
(PID.TID 0000.0001) %MON dynstat_vvel_max             =   2.0941360988935E-02
(PID.TID 0000.0001) %MON dynstat_vvel_min             =  -8.6451491229429E-03
(PID.TID 0000.0001) %MON dynstat_vvel_mean            =   1.5565775825526E-05
(PID.TID 0000.0001) %MON dynstat_vvel_sd              =   4.6986599819980E-04
(PID.TID 0000.0001) %MON dynstat_vvel_del2            =   9.4220810370688E-07
(PID.TID 0000.0001) %MON dynstat_wvel_max             =   1.0630620974032E-03
(PID.TID 0000.0001) %MON dynstat_wvel_min             =  -1.0283870509431E-03
(PID.TID 0000.0001) %MON dynstat_wvel_mean            =   7.5675239421889E-09
(PID.TID 0000.0001) %MON dynstat_wvel_sd              =   1.9134896518092E-05
(PID.TID 0000.0001) %MON dynstat_wvel_del2            =   8.0770011935925E-08
(PID.TID 0000.0001) %MON dynstat_theta_max            =   1.2000000000000E+00
(PID.TID 0000.0001) %MON dynstat_theta_min            =  -1.0000000000000E+00
(PID.TID 0000.0001) %MON dynstat_theta_mean           =   5.6868705123183E-01
(PID.TID 0000.0001) %MON dynstat_theta_sd             =   8.6835896853647E-01
(PID.TID 0000.0001) %MON dynstat_theta_del2           =   3.0255484638355E-06
(PID.TID 0000.0001) %MON dynstat_salt_max             =   3.4700000000000E+01
(PID.TID 0000.0001) %MON dynstat_salt_min             =   3.4000000000000E+01
(PID.TID 0000.0001) %MON dynstat_salt_mean            =   3.4499088988709E+01
(PID.TID 0000.0001) %MON dynstat_salt_sd              =   2.7628139015937E-01
(PID.TID 0000.0001) %MON dynstat_salt_del2            =   1.1938294186900E-06
(PID.TID 0000.0001) %MON advcfl_uvel_max              =   2.6992955739218E-03
(PID.TID 0000.0001) %MON advcfl_vvel_max              =   2.0941360988935E-03
(PID.TID 0000.0001) %MON advcfl_wvel_max              =   5.3153104870158E-03
(PID.TID 0000.0001) %MON advcfl_W_hf_max              =   5.3153104870158E-03
(PID.TID 0000.0001) %MON pe_b_mean                    =  -8.3025470326779E-01
(PID.TID 0000.0001) %MON ke_max                       =   2.6353782684826E-04
(PID.TID 0000.0001) %MON ke_mean                      =   4.1647186718411E-07
(PID.TID 0000.0001) %MON ke_vol                       =   4.2724772723129E+12
(PID.TID 0000.0001) // =======================================================
(PID.TID 0000.0001) // End MONITOR dynamic field statistics
(PID.TID 0000.0001) // =======================================================
(PID.TID 0000.0001) // =======================================================
(PID.TID 0000.0001) // Begin OBCS MONITOR field statistics
(PID.TID 0000.0001) // =======================================================
(PID.TID 0000.0001) %MON obc_N_vVel_max               =   1.5241300090925E-05
(PID.TID 0000.0001) %MON obc_N_vVel_min               =   1.5241300090924E-05
(PID.TID 0000.0001) %MON obc_N_vVel_mean              =   1.5241300090924E-05
(PID.TID 0000.0001) %MON obc_N_vVel_sd                =   2.6951214729547E-12
(PID.TID 0000.0001) %MON obc_N_vVel_Int               =   1.0059258060010E+03
(PID.TID 0000.0001) // =======================================================
(PID.TID 0000.0001) // End OBCS MONITOR field statistics
(PID.TID 0000.0001) // =======================================================
 cg2d: Sum(rhs),rhsMax =   4.51087132189234E+00  2.99938753101960E+02
(PID.TID 0000.0001)      cg2d_init_res =   7.69250953627218E-06
(PID.TID 0000.0001)      cg2d_iters(min,last) =      -1      82
(PID.TID 0000.0001)      cg2d_last_res =   9.57028090633143E-12
(PID.TID 0000.0001) // =======================================================
(PID.TID 0000.0001) // Begin MONITOR dynamic field statistics
(PID.TID 0000.0001) // =======================================================
(PID.TID 0000.0001) %MON time_tsnumber                =                  1112
(PID.TID 0000.0001) %MON time_secondsf                =   1.1120000000000E+05
(PID.TID 0000.0001) %MON dynstat_eta_max              =   5.7979501848132E+00
(PID.TID 0000.0001) %MON dynstat_eta_min              =  -1.4198987422623E+01
(PID.TID 0000.0001) %MON dynstat_eta_mean             =  -2.5055279994292E+00
(PID.TID 0000.0001) %MON dynstat_eta_sd               =   4.9504722885802E+00
(PID.TID 0000.0001) %MON dynstat_eta_del2             =   2.0715337717675E-01
(PID.TID 0000.0001) %MON dynstat_uvel_max             =   6.0177196318527E-03
(PID.TID 0000.0001) %MON dynstat_uvel_min             =  -2.7062227434434E-02
(PID.TID 0000.0001) %MON dynstat_uvel_mean            =  -1.1368423116985E-07
(PID.TID 0000.0001) %MON dynstat_uvel_sd              =   7.9204549707544E-04
(PID.TID 0000.0001) %MON dynstat_uvel_del2            =   1.1593821804830E-06
(PID.TID 0000.0001) %MON dynstat_vvel_max             =   2.0987531429785E-02
(PID.TID 0000.0001) %MON dynstat_vvel_min             =  -8.6681366479215E-03
(PID.TID 0000.0001) %MON dynstat_vvel_mean            =   1.5568313634992E-05
(PID.TID 0000.0001) %MON dynstat_vvel_sd              =   4.7076313740612E-04
(PID.TID 0000.0001) %MON dynstat_vvel_del2            =   9.4405560369470E-07
(PID.TID 0000.0001) %MON dynstat_wvel_max             =   1.0656809736064E-03
(PID.TID 0000.0001) %MON dynstat_wvel_min             =  -1.0308570445886E-03
(PID.TID 0000.0001) %MON dynstat_wvel_mean            =   7.5259508686838E-09
(PID.TID 0000.0001) %MON dynstat_wvel_sd              =   1.9066767073498E-05
(PID.TID 0000.0001) %MON dynstat_wvel_del2            =   8.0580170363778E-08
(PID.TID 0000.0001) %MON dynstat_theta_max            =   1.2000000000000E+00
(PID.TID 0000.0001) %MON dynstat_theta_min            =  -1.0000000000000E+00
(PID.TID 0000.0001) %MON dynstat_theta_mean           =   5.6868612056107E-01
(PID.TID 0000.0001) %MON dynstat_theta_sd             =   8.6835846576833E-01
(PID.TID 0000.0001) %MON dynstat_theta_del2           =   3.0317066084058E-06
(PID.TID 0000.0001) %MON dynstat_salt_max             =   3.4700000000000E+01
(PID.TID 0000.0001) %MON dynstat_salt_min             =   3.4000000000000E+01
(PID.TID 0000.0001) %MON dynstat_salt_mean            =   3.4499088616284E+01
(PID.TID 0000.0001) %MON dynstat_salt_sd              =   2.7628119661734E-01
(PID.TID 0000.0001) %MON dynstat_salt_del2            =   1.1962931460913E-06
(PID.TID 0000.0001) %MON advcfl_uvel_max              =   2.7062227434434E-03
(PID.TID 0000.0001) %MON advcfl_vvel_max              =   2.0987531429785E-03
(PID.TID 0000.0001) %MON advcfl_wvel_max              =   5.3284048680320E-03
(PID.TID 0000.0001) %MON advcfl_W_hf_max              =   5.3284048680320E-03
(PID.TID 0000.0001) %MON pe_b_mean                    =  -8.3025698492910E-01
(PID.TID 0000.0001) %MON ke_max                       =   2.6496764423020E-04
(PID.TID 0000.0001) %MON ke_mean                      =   4.1837330886869E-07
(PID.TID 0000.0001) %MON ke_vol                       =   4.2724772179755E+12
(PID.TID 0000.0001) // =======================================================
(PID.TID 0000.0001) // End MONITOR dynamic field statistics
(PID.TID 0000.0001) // =======================================================
(PID.TID 0000.0001) // =======================================================
(PID.TID 0000.0001) // Begin OBCS MONITOR field statistics
(PID.TID 0000.0001) // =======================================================
(PID.TID 0000.0001) %MON obc_N_vVel_max               =   1.5247090709476E-05
(PID.TID 0000.0001) %MON obc_N_vVel_min               =   1.5247090709476E-05
(PID.TID 0000.0001) %MON obc_N_vVel_mean              =   1.5247090709476E-05
(PID.TID 0000.0001) %MON obc_N_vVel_sd                =  -1.3984522230975E-23
(PID.TID 0000.0001) %MON obc_N_vVel_Int               =   1.0063079868254E+03
(PID.TID 0000.0001) // =======================================================
(PID.TID 0000.0001) // End OBCS MONITOR field statistics
(PID.TID 0000.0001) // =======================================================
 cg2d: Sum(rhs),rhsMax =   4.51088639419558E+00  2.99938843475392E+02
(PID.TID 0000.0001)      cg2d_init_res =   7.68392566040385E-06
(PID.TID 0000.0001)      cg2d_iters(min,last) =      -1      82
(PID.TID 0000.0001)      cg2d_last_res =   9.56471534129736E-12
(PID.TID 0000.0001) // =======================================================
(PID.TID 0000.0001) // Begin MONITOR dynamic field statistics
(PID.TID 0000.0001) // =======================================================
(PID.TID 0000.0001) %MON time_tsnumber                =                  1113
(PID.TID 0000.0001) %MON time_secondsf                =   1.1130000000000E+05
(PID.TID 0000.0001) %MON dynstat_eta_max              =   5.7979291124683E+00
(PID.TID 0000.0001) %MON dynstat_eta_min              =  -1.4199003291555E+01
(PID.TID 0000.0001) %MON dynstat_eta_mean             =  -2.5055371261554E+00
(PID.TID 0000.0001) %MON dynstat_eta_sd               =   4.9504756264089E+00
(PID.TID 0000.0001) %MON dynstat_eta_del2             =   2.0715341035115E-01
(PID.TID 0000.0001) %MON dynstat_uvel_max             =   6.0321976705566E-03
(PID.TID 0000.0001) %MON dynstat_uvel_min             =  -2.7131615510662E-02
(PID.TID 0000.0001) %MON dynstat_uvel_mean            =  -1.1340182992596E-07
(PID.TID 0000.0001) %MON dynstat_uvel_sd              =   7.9395729548217E-04
(PID.TID 0000.0001) %MON dynstat_uvel_del2            =   1.1621305993915E-06
(PID.TID 0000.0001) %MON dynstat_vvel_max             =   2.1033745205797E-02
(PID.TID 0000.0001) %MON dynstat_vvel_min             =  -8.6911804684959E-03
(PID.TID 0000.0001) %MON dynstat_vvel_mean            =   1.5565107480278E-05
(PID.TID 0000.0001) %MON dynstat_vvel_sd              =   4.7166239915779E-04
(PID.TID 0000.0001) %MON dynstat_vvel_del2            =   9.4591164504881E-07
(PID.TID 0000.0001) %MON dynstat_wvel_max             =   1.0683034526308E-03
(PID.TID 0000.0001) %MON dynstat_wvel_min             =  -1.0333304916259E-03
(PID.TID 0000.0001) %MON dynstat_wvel_mean            =   7.4781221931922E-09
(PID.TID 0000.0001) %MON dynstat_wvel_sd              =   1.9002844495343E-05
(PID.TID 0000.0001) %MON dynstat_wvel_del2            =   8.0387024406431E-08
(PID.TID 0000.0001) %MON dynstat_theta_max            =   1.2000000000000E+00
(PID.TID 0000.0001) %MON dynstat_theta_min            =  -1.0000000000000E+00
(PID.TID 0000.0001) %MON dynstat_theta_mean           =   5.6868518820931E-01
(PID.TID 0000.0001) %MON dynstat_theta_sd             =   8.6835796210948E-01
(PID.TID 0000.0001) %MON dynstat_theta_del2           =   3.0378828338370E-06
(PID.TID 0000.0001) %MON dynstat_salt_max             =   3.4700000000000E+01
(PID.TID 0000.0001) %MON dynstat_salt_min             =   3.4000000000000E+01
(PID.TID 0000.0001) %MON dynstat_salt_mean            =   3.4499088243186E+01
(PID.TID 0000.0001) %MON dynstat_salt_sd              =   2.7628100272996E-01
(PID.TID 0000.0001) %MON dynstat_salt_del2            =   1.1987638826325E-06
(PID.TID 0000.0001) %MON advcfl_uvel_max              =   2.7131615510662E-03
(PID.TID 0000.0001) %MON advcfl_vvel_max              =   2.1033745205797E-03
(PID.TID 0000.0001) %MON advcfl_wvel_max              =   5.3415172631542E-03
(PID.TID 0000.0001) %MON advcfl_W_hf_max              =   5.3415172631542E-03
(PID.TID 0000.0001) %MON pe_b_mean                    =  -8.3025926040273E-01
(PID.TID 0000.0001) %MON ke_max                       =   2.6640411801080E-04
(PID.TID 0000.0001) %MON ke_mean                      =   4.2028298870879E-07
(PID.TID 0000.0001) %MON ke_vol                       =   4.2724771636834E+12
(PID.TID 0000.0001) // =======================================================
(PID.TID 0000.0001) // End MONITOR dynamic field statistics
(PID.TID 0000.0001) // =======================================================
(PID.TID 0000.0001) // =======================================================
(PID.TID 0000.0001) // Begin OBCS MONITOR field statistics
(PID.TID 0000.0001) // =======================================================
(PID.TID 0000.0001) %MON obc_N_vVel_max               =   1.5247729634461E-05
(PID.TID 0000.0001) %MON obc_N_vVel_min               =   1.5247729634461E-05
(PID.TID 0000.0001) %MON obc_N_vVel_mean              =   1.5247729634461E-05
(PID.TID 0000.0001) %MON obc_N_vVel_sd                =  -1.3415835559844E-23
(PID.TID 0000.0001) %MON obc_N_vVel_Int               =   1.0063501558744E+03
(PID.TID 0000.0001) // =======================================================
(PID.TID 0000.0001) // End OBCS MONITOR field statistics
(PID.TID 0000.0001) // =======================================================
 cg2d: Sum(rhs),rhsMax =   4.51090143439699E+00  2.99938933699833E+02
(PID.TID 0000.0001)      cg2d_init_res =   7.67208887495064E-06
(PID.TID 0000.0001)      cg2d_iters(min,last) =      -1      82
(PID.TID 0000.0001)      cg2d_last_res =   9.55830652833503E-12
(PID.TID 0000.0001) // =======================================================
(PID.TID 0000.0001) // Begin MONITOR dynamic field statistics
(PID.TID 0000.0001) // =======================================================
(PID.TID 0000.0001) %MON time_tsnumber                =                  1114
(PID.TID 0000.0001) %MON time_secondsf                =   1.1140000000000E+05
(PID.TID 0000.0001) %MON dynstat_eta_max              =   5.7979080752486E+00
(PID.TID 0000.0001) %MON dynstat_eta_min              =  -1.4199019121263E+01
(PID.TID 0000.0001) %MON dynstat_eta_mean             =  -2.5055462338113E+00
(PID.TID 0000.0001) %MON dynstat_eta_sd               =   4.9504789539204E+00
(PID.TID 0000.0001) %MON dynstat_eta_del2             =   2.0715344357319E-01
(PID.TID 0000.0001) %MON dynstat_uvel_max             =   6.0467031021183E-03
(PID.TID 0000.0001) %MON dynstat_uvel_min             =  -2.7201120073402E-02
(PID.TID 0000.0001) %MON dynstat_uvel_mean            =  -1.1309556794260E-07
(PID.TID 0000.0001) %MON dynstat_uvel_sd              =   7.9587288165772E-04
(PID.TID 0000.0001) %MON dynstat_uvel_del2            =   1.1648860567329E-06
(PID.TID 0000.0001) %MON dynstat_vvel_max             =   2.1080002160094E-02
(PID.TID 0000.0001) %MON dynstat_vvel_min             =  -8.7142806612999E-03
(PID.TID 0000.0001) %MON dynstat_vvel_mean            =   1.5556231493222E-05
(PID.TID 0000.0001) %MON dynstat_vvel_sd              =   4.7256479847023E-04
(PID.TID 0000.0001) %MON dynstat_vvel_del2            =   9.4778095762500E-07
(PID.TID 0000.0001) %MON dynstat_wvel_max             =   1.0709295262459E-03
(PID.TID 0000.0001) %MON dynstat_wvel_min             =  -1.0358073884001E-03
(PID.TID 0000.0001) %MON dynstat_wvel_mean            =   7.4246729092415E-09
(PID.TID 0000.0001) %MON dynstat_wvel_sd              =   1.8947850549637E-05
(PID.TID 0000.0001) %MON dynstat_wvel_del2            =   8.0207013685988E-08
(PID.TID 0000.0001) %MON dynstat_theta_max            =   1.2000000000000E+00
(PID.TID 0000.0001) %MON dynstat_theta_min            =  -1.0000000000000E+00
(PID.TID 0000.0001) %MON dynstat_theta_mean           =   5.6868425417336E-01
(PID.TID 0000.0001) %MON dynstat_theta_sd             =   8.6835745755857E-01
(PID.TID 0000.0001) %MON dynstat_theta_del2           =   3.0440715946287E-06
(PID.TID 0000.0001) %MON dynstat_salt_max             =   3.4700000000000E+01
(PID.TID 0000.0001) %MON dynstat_salt_min             =   3.4000000000000E+01
(PID.TID 0000.0001) %MON dynstat_salt_mean            =   3.4499087869413E+01
(PID.TID 0000.0001) %MON dynstat_salt_sd              =   2.7628080849680E-01
(PID.TID 0000.0001) %MON dynstat_salt_del2            =   1.2012403679327E-06
(PID.TID 0000.0001) %MON advcfl_uvel_max              =   2.7201120073402E-03
(PID.TID 0000.0001) %MON advcfl_vvel_max              =   2.1080002160094E-03
(PID.TID 0000.0001) %MON advcfl_wvel_max              =   5.3546476312294E-03
(PID.TID 0000.0001) %MON advcfl_W_hf_max              =   5.3546476312294E-03
(PID.TID 0000.0001) %MON pe_b_mean                    =  -8.3026152824436E-01
(PID.TID 0000.0001) %MON ke_max                       =   2.6784727447239E-04
(PID.TID 0000.0001) %MON ke_mean                      =   4.2220140953278E-07
(PID.TID 0000.0001) %MON ke_vol                       =   4.2724771094706E+12
(PID.TID 0000.0001) // =======================================================
(PID.TID 0000.0001) // End MONITOR dynamic field statistics
(PID.TID 0000.0001) // =======================================================
(PID.TID 0000.0001) // =======================================================
(PID.TID 0000.0001) // Begin OBCS MONITOR field statistics
(PID.TID 0000.0001) // =======================================================
(PID.TID 0000.0001) %MON obc_N_vVel_max               =   1.5243240241617E-05
(PID.TID 0000.0001) %MON obc_N_vVel_min               =   1.5243240241617E-05
(PID.TID 0000.0001) %MON obc_N_vVel_mean              =   1.5243240241617E-05
(PID.TID 0000.0001) %MON obc_N_vVel_sd                =   3.8385094322016E-12
(PID.TID 0000.0001) %MON obc_N_vVel_Int               =   1.0060538559467E+03
(PID.TID 0000.0001) // =======================================================
(PID.TID 0000.0001) // End OBCS MONITOR field statistics
(PID.TID 0000.0001) // =======================================================
 cg2d: Sum(rhs),rhsMax =   4.51091643457745E+00  2.99939023629832E+02
(PID.TID 0000.0001)      cg2d_init_res =   7.65740568843054E-06
(PID.TID 0000.0001)      cg2d_iters(min,last) =      -1      82
(PID.TID 0000.0001)      cg2d_last_res =   9.55129901194665E-12
(PID.TID 0000.0001) // =======================================================
(PID.TID 0000.0001) // Begin MONITOR dynamic field statistics
(PID.TID 0000.0001) // =======================================================
(PID.TID 0000.0001) %MON time_tsnumber                =                  1115
(PID.TID 0000.0001) %MON time_secondsf                =   1.1150000000000E+05
(PID.TID 0000.0001) %MON dynstat_eta_max              =   5.7978870830506E+00
(PID.TID 0000.0001) %MON dynstat_eta_min              =  -1.4199034902004E+01
(PID.TID 0000.0001) %MON dynstat_eta_mean             =  -2.5055553167832E+00
(PID.TID 0000.0001) %MON dynstat_eta_sd               =   4.9504822694058E+00
(PID.TID 0000.0001) %MON dynstat_eta_del2             =   2.0715347684145E-01
(PID.TID 0000.0001) %MON dynstat_uvel_max             =   6.0612359363397E-03
(PID.TID 0000.0001) %MON dynstat_uvel_min             =  -2.7270741237161E-02
(PID.TID 0000.0001) %MON dynstat_uvel_mean            =  -1.1277043602118E-07
(PID.TID 0000.0001) %MON dynstat_uvel_sd              =   7.9779224994922E-04
(PID.TID 0000.0001) %MON dynstat_uvel_del2            =   1.1676485433395E-06
(PID.TID 0000.0001) %MON dynstat_vvel_max             =   2.1126302152044E-02
(PID.TID 0000.0001) %MON dynstat_vvel_min             =  -8.7374372925790E-03
(PID.TID 0000.0001) %MON dynstat_vvel_mean            =   1.5541831216441E-05
(PID.TID 0000.0001) %MON dynstat_vvel_sd              =   4.7347123153222E-04
(PID.TID 0000.0001) %MON dynstat_vvel_del2            =   9.4966756807062E-07
(PID.TID 0000.0001) %MON dynstat_wvel_max             =   1.0735591860376E-03
(PID.TID 0000.0001) %MON dynstat_wvel_min             =  -1.0382877315768E-03
(PID.TID 0000.0001) %MON dynstat_wvel_mean            =   7.3663107951622E-09
(PID.TID 0000.0001) %MON dynstat_wvel_sd              =   1.8905966427620E-05
(PID.TID 0000.0001) %MON dynstat_wvel_del2            =   8.0055078515001E-08
(PID.TID 0000.0001) %MON dynstat_theta_max            =   1.2000000000000E+00
(PID.TID 0000.0001) %MON dynstat_theta_min            =  -1.0000000000000E+00
(PID.TID 0000.0001) %MON dynstat_theta_mean           =   5.6868331845007E-01
(PID.TID 0000.0001) %MON dynstat_theta_sd             =   8.6835695211317E-01
(PID.TID 0000.0001) %MON dynstat_theta_del2           =   3.0502684791227E-06
(PID.TID 0000.0001) %MON dynstat_salt_max             =   3.4700000000000E+01
(PID.TID 0000.0001) %MON dynstat_salt_min             =   3.4000000000000E+01
(PID.TID 0000.0001) %MON dynstat_salt_mean            =   3.4499087494965E+01
(PID.TID 0000.0001) %MON dynstat_salt_sd              =   2.7628061391696E-01
(PID.TID 0000.0001) %MON dynstat_salt_del2            =   1.2037214865313E-06
(PID.TID 0000.0001) %MON advcfl_uvel_max              =   2.7270741237161E-03
(PID.TID 0000.0001) %MON advcfl_vvel_max              =   2.1126302152044E-03
(PID.TID 0000.0001) %MON advcfl_wvel_max              =   5.3677959301880E-03
(PID.TID 0000.0001) %MON advcfl_W_hf_max              =   5.3677959301880E-03
(PID.TID 0000.0001) %MON pe_b_mean                    =  -8.3026378705171E-01
(PID.TID 0000.0001) %MON ke_max                       =   2.6929714014483E-04
(PID.TID 0000.0001) %MON ke_mean                      =   4.2412902343397E-07
(PID.TID 0000.0001) %MON ke_vol                       =   4.2724770553712E+12
(PID.TID 0000.0001) // =======================================================
(PID.TID 0000.0001) // End MONITOR dynamic field statistics
(PID.TID 0000.0001) // =======================================================
(PID.TID 0000.0001) // =======================================================
(PID.TID 0000.0001) // Begin OBCS MONITOR field statistics
(PID.TID 0000.0001) // =======================================================
(PID.TID 0000.0001) %MON obc_N_vVel_max               =   1.5233710355224E-05
(PID.TID 0000.0001) %MON obc_N_vVel_min               =   1.5233710355223E-05
(PID.TID 0000.0001) %MON obc_N_vVel_mean              =   1.5233710355224E-05
(PID.TID 0000.0001) %MON obc_N_vVel_sd                =  -1.5768130426792E-23
(PID.TID 0000.0001) %MON obc_N_vVel_Int               =   1.0054248834448E+03
(PID.TID 0000.0001) // =======================================================
(PID.TID 0000.0001) // End OBCS MONITOR field statistics
(PID.TID 0000.0001) // =======================================================
 cg2d: Sum(rhs),rhsMax =   4.51093138700504E+00  2.99939113127494E+02
(PID.TID 0000.0001)      cg2d_init_res =   7.64028755177201E-06
(PID.TID 0000.0001)      cg2d_iters(min,last) =      -1      82
(PID.TID 0000.0001)      cg2d_last_res =   9.54401413693216E-12
(PID.TID 0000.0001) // =======================================================
(PID.TID 0000.0001) // Begin MONITOR dynamic field statistics
(PID.TID 0000.0001) // =======================================================
(PID.TID 0000.0001) %MON time_tsnumber                =                  1116
(PID.TID 0000.0001) %MON time_secondsf                =   1.1160000000000E+05
(PID.TID 0000.0001) %MON dynstat_eta_max              =   5.7978661454151E+00
(PID.TID 0000.0001) %MON dynstat_eta_min              =  -1.4199050624507E+01
(PID.TID 0000.0001) %MON dynstat_eta_mean             =  -2.5055643696246E+00
(PID.TID 0000.0001) %MON dynstat_eta_sd               =   4.9504855712652E+00
(PID.TID 0000.0001) %MON dynstat_eta_del2             =   2.0715351015451E-01
(PID.TID 0000.0001) %MON dynstat_uvel_max             =   6.0757961775799E-03
(PID.TID 0000.0001) %MON dynstat_uvel_min             =  -2.7340479124526E-02
(PID.TID 0000.0001) %MON dynstat_uvel_mean            =  -1.1243416108739E-07
(PID.TID 0000.0001) %MON dynstat_uvel_sd              =   7.9971539575092E-04
(PID.TID 0000.0001) %MON dynstat_uvel_del2            =   1.1704180548915E-06
(PID.TID 0000.0001) %MON dynstat_vvel_max             =   2.1172645056613E-02
(PID.TID 0000.0001) %MON dynstat_vvel_min             =  -8.7606504185427E-03
(PID.TID 0000.0001) %MON dynstat_vvel_mean            =   1.5522121829011E-05
(PID.TID 0000.0001) %MON dynstat_vvel_sd              =   4.7438243182344E-04
(PID.TID 0000.0001) %MON dynstat_vvel_del2            =   9.5157458110787E-07
(PID.TID 0000.0001) %MON dynstat_wvel_max             =   1.0761924233805E-03
(PID.TID 0000.0001) %MON dynstat_wvel_min             =  -1.0407715183482E-03
(PID.TID 0000.0001) %MON dynstat_wvel_mean            =   7.3038035455709E-09
(PID.TID 0000.0001) %MON dynstat_wvel_sd              =   1.8880593157250E-05
(PID.TID 0000.0001) %MON dynstat_wvel_del2            =   7.9943810481517E-08
(PID.TID 0000.0001) %MON dynstat_theta_max            =   1.2000000000000E+00
(PID.TID 0000.0001) %MON dynstat_theta_min            =  -1.0000000000000E+00
(PID.TID 0000.0001) %MON dynstat_theta_mean           =   5.6868238103634E-01
(PID.TID 0000.0001) %MON dynstat_theta_sd             =   8.6835644577075E-01
(PID.TID 0000.0001) %MON dynstat_theta_del2           =   3.0564697260114E-06
(PID.TID 0000.0001) %MON dynstat_salt_max             =   3.4700000000000E+01
(PID.TID 0000.0001) %MON dynstat_salt_min             =   3.4000000000000E+01
(PID.TID 0000.0001) %MON dynstat_salt_mean            =   3.4499087119840E+01
(PID.TID 0000.0001) %MON dynstat_salt_sd              =   2.7628041898956E-01
(PID.TID 0000.0001) %MON dynstat_salt_del2            =   1.2062062835049E-06
(PID.TID 0000.0001) %MON advcfl_uvel_max              =   2.7340479124526E-03
(PID.TID 0000.0001) %MON advcfl_vvel_max              =   2.1172645056613E-03
(PID.TID 0000.0001) %MON advcfl_wvel_max              =   5.3809621169024E-03
(PID.TID 0000.0001) %MON advcfl_W_hf_max              =   5.3809621169024E-03
(PID.TID 0000.0001) %MON pe_b_mean                    =  -8.3026603548192E-01
(PID.TID 0000.0001) %MON ke_max                       =   2.7075374178954E-04
(PID.TID 0000.0001) %MON ke_mean                      =   4.2606621059574E-07
(PID.TID 0000.0001) %MON ke_vol                       =   4.2724770014183E+12
(PID.TID 0000.0001) // =======================================================
(PID.TID 0000.0001) // End MONITOR dynamic field statistics
(PID.TID 0000.0001) // =======================================================
(PID.TID 0000.0001) // =======================================================
(PID.TID 0000.0001) // Begin OBCS MONITOR field statistics
(PID.TID 0000.0001) // =======================================================
(PID.TID 0000.0001) %MON obc_N_vVel_max               =   1.5219291418299E-05
(PID.TID 0000.0001) %MON obc_N_vVel_min               =   1.5219291418298E-05
(PID.TID 0000.0001) %MON obc_N_vVel_mean              =   1.5219291418299E-05
(PID.TID 0000.0001) %MON obc_N_vVel_sd                =  -9.1765349205102E-24
(PID.TID 0000.0001) %MON obc_N_vVel_Int               =   1.0044732336077E+03
(PID.TID 0000.0001) // =======================================================
(PID.TID 0000.0001) // End OBCS MONITOR field statistics
(PID.TID 0000.0001) // =======================================================
 cg2d: Sum(rhs),rhsMax =   4.51094628424037E+00  2.99939202063885E+02
(PID.TID 0000.0001)      cg2d_init_res =   7.62116804911067E-06
(PID.TID 0000.0001)      cg2d_iters(min,last) =      -1      82
(PID.TID 0000.0001)      cg2d_last_res =   9.53681991972696E-12
(PID.TID 0000.0001) // =======================================================
(PID.TID 0000.0001) // Begin MONITOR dynamic field statistics
(PID.TID 0000.0001) // =======================================================
(PID.TID 0000.0001) %MON time_tsnumber                =                  1117
(PID.TID 0000.0001) %MON time_secondsf                =   1.1170000000000E+05
(PID.TID 0000.0001) %MON dynstat_eta_max              =   5.7978452713999E+00
(PID.TID 0000.0001) %MON dynstat_eta_min              =  -1.4199066280092E+01
(PID.TID 0000.0001) %MON dynstat_eta_mean             =  -2.5055733871261E+00
(PID.TID 0000.0001) %MON dynstat_eta_sd               =   4.9504888580348E+00
(PID.TID 0000.0001) %MON dynstat_eta_del2             =   2.0715354351136E-01
(PID.TID 0000.0001) %MON dynstat_uvel_max             =   6.0903838251249E-03
(PID.TID 0000.0001) %MON dynstat_uvel_min             =  -2.7410333865116E-02
(PID.TID 0000.0001) %MON dynstat_uvel_mean            =  -1.1209640648324E-07
(PID.TID 0000.0001) %MON dynstat_uvel_sd              =   8.0164231568982E-04
(PID.TID 0000.0001) %MON dynstat_uvel_del2            =   1.1731945932255E-06
(PID.TID 0000.0001) %MON dynstat_vvel_max             =   2.1219030763159E-02
(PID.TID 0000.0001) %MON dynstat_vvel_min             =  -8.7839200850421E-03
(PID.TID 0000.0001) %MON dynstat_vvel_mean            =   1.5497385445414E-05
(PID.TID 0000.0001) %MON dynstat_vvel_sd              =   4.7529893604723E-04
(PID.TID 0000.0001) %MON dynstat_vvel_del2            =   9.5350402972588E-07
(PID.TID 0000.0001) %MON dynstat_wvel_max             =   1.0788292294864E-03
(PID.TID 0000.0001) %MON dynstat_wvel_min             =  -1.0432587462773E-03
(PID.TID 0000.0001) %MON dynstat_wvel_mean            =   7.2379732179714E-09
(PID.TID 0000.0001) %MON dynstat_wvel_sd              =   1.8874158417049E-05
(PID.TID 0000.0001) %MON dynstat_wvel_del2            =   7.9882799633549E-08
(PID.TID 0000.0001) %MON dynstat_theta_max            =   1.2000000000000E+00
(PID.TID 0000.0001) %MON dynstat_theta_min            =  -1.0000000000000E+00
(PID.TID 0000.0001) %MON dynstat_theta_mean           =   5.6868144192933E-01
(PID.TID 0000.0001) %MON dynstat_theta_sd             =   8.6835593853152E-01
(PID.TID 0000.0001) %MON dynstat_theta_del2           =   3.0626729615202E-06
(PID.TID 0000.0001) %MON dynstat_salt_max             =   3.4700000000000E+01
(PID.TID 0000.0001) %MON dynstat_salt_min             =   3.4000000000000E+01
(PID.TID 0000.0001) %MON dynstat_salt_mean            =   3.4499086744037E+01
(PID.TID 0000.0001) %MON dynstat_salt_sd              =   2.7628022371459E-01
(PID.TID 0000.0001) %MON dynstat_salt_del2            =   1.2086941867173E-06
(PID.TID 0000.0001) %MON advcfl_uvel_max              =   2.7410333865116E-03
(PID.TID 0000.0001) %MON advcfl_vvel_max              =   2.1219030763159E-03
(PID.TID 0000.0001) %MON advcfl_wvel_max              =   5.3941461474320E-03
(PID.TID 0000.0001) %MON advcfl_W_hf_max              =   5.3941461474320E-03
(PID.TID 0000.0001) %MON pe_b_mean                    =  -8.3026827226915E-01
(PID.TID 0000.0001) %MON ke_max                       =   2.7221710637838E-04
(PID.TID 0000.0001) %MON ke_mean                      =   4.2801326249278E-07
(PID.TID 0000.0001) %MON ke_vol                       =   4.2724769476444E+12
(PID.TID 0000.0001) // =======================================================
(PID.TID 0000.0001) // End MONITOR dynamic field statistics
(PID.TID 0000.0001) // =======================================================
(PID.TID 0000.0001) // =======================================================
(PID.TID 0000.0001) // Begin OBCS MONITOR field statistics
(PID.TID 0000.0001) // =======================================================
(PID.TID 0000.0001) %MON obc_N_vVel_max               =   1.5200196282291E-05
(PID.TID 0000.0001) %MON obc_N_vVel_min               =   1.5200196282291E-05
(PID.TID 0000.0001) %MON obc_N_vVel_mean              =   1.5200196282291E-05
(PID.TID 0000.0001) %MON obc_N_vVel_sd                =   3.1751005835233E-12
(PID.TID 0000.0001) %MON obc_N_vVel_Int               =   1.0032129546312E+03
(PID.TID 0000.0001) // =======================================================
(PID.TID 0000.0001) // End OBCS MONITOR field statistics
(PID.TID 0000.0001) // =======================================================
 cg2d: Sum(rhs),rhsMax =   4.51096111923076E+00  2.99939290320405E+02
(PID.TID 0000.0001)      cg2d_init_res =   7.60047438034635E-06
(PID.TID 0000.0001)      cg2d_iters(min,last) =      -1      82
(PID.TID 0000.0001)      cg2d_last_res =   9.53009675809938E-12
(PID.TID 0000.0001) // =======================================================
(PID.TID 0000.0001) // Begin MONITOR dynamic field statistics
(PID.TID 0000.0001) // =======================================================
(PID.TID 0000.0001) %MON time_tsnumber                =                  1118
(PID.TID 0000.0001) %MON time_secondsf                =   1.1180000000000E+05
(PID.TID 0000.0001) %MON dynstat_eta_max              =   5.7978244695556E+00
(PID.TID 0000.0001) %MON dynstat_eta_min              =  -1.4199081859312E+01
(PID.TID 0000.0001) %MON dynstat_eta_mean             =  -2.5055823643797E+00
(PID.TID 0000.0001) %MON dynstat_eta_sd               =   4.9504921283971E+00
(PID.TID 0000.0001) %MON dynstat_eta_del2             =   2.0715357691093E-01
(PID.TID 0000.0001) %MON dynstat_uvel_max             =   6.1049988738233E-03
(PID.TID 0000.0001) %MON dynstat_uvel_min             =  -2.7480305594214E-02
(PID.TID 0000.0001) %MON dynstat_uvel_mean            =  -1.1176782624519E-07
(PID.TID 0000.0001) %MON dynstat_uvel_sd              =   8.0357300770972E-04
(PID.TID 0000.0001) %MON dynstat_uvel_del2            =   1.1759781657328E-06
(PID.TID 0000.0001) %MON dynstat_vvel_max             =   2.1265459173897E-02
(PID.TID 0000.0001) %MON dynstat_vvel_min             =  -8.8072463272493E-03
(PID.TID 0000.0001) %MON dynstat_vvel_mean            =   1.5467967546344E-05
(PID.TID 0000.0001) %MON dynstat_vvel_sd              =   4.7622106162343E-04
(PID.TID 0000.0001) %MON dynstat_vvel_del2            =   9.5545680184574E-07
(PID.TID 0000.0001) %MON dynstat_wvel_max             =   1.0814695954075E-03
(PID.TID 0000.0001) %MON dynstat_wvel_min             =  -1.0457494135626E-03
(PID.TID 0000.0001) %MON dynstat_wvel_mean            =   7.1696829698732E-09
(PID.TID 0000.0001) %MON dynstat_wvel_sd              =   1.8887985961974E-05
(PID.TID 0000.0001) %MON dynstat_wvel_del2            =   7.9878218454763E-08
(PID.TID 0000.0001) %MON dynstat_theta_max            =   1.2000000000000E+00
(PID.TID 0000.0001) %MON dynstat_theta_min            =  -1.0000000000000E+00
(PID.TID 0000.0001) %MON dynstat_theta_mean           =   5.6868050112631E-01
(PID.TID 0000.0001) %MON dynstat_theta_sd             =   8.6835543039484E-01
(PID.TID 0000.0001) %MON dynstat_theta_del2           =   3.0688763933269E-06
(PID.TID 0000.0001) %MON dynstat_salt_max             =   3.4700000000000E+01
(PID.TID 0000.0001) %MON dynstat_salt_min             =   3.4000000000000E+01
(PID.TID 0000.0001) %MON dynstat_salt_mean            =   3.4499086367556E+01
(PID.TID 0000.0001) %MON dynstat_salt_sd              =   2.7628002809176E-01
(PID.TID 0000.0001) %MON dynstat_salt_del2            =   1.2111848717450E-06
(PID.TID 0000.0001) %MON advcfl_uvel_max              =   2.7480305594214E-03
(PID.TID 0000.0001) %MON advcfl_vvel_max              =   2.1265459173897E-03
(PID.TID 0000.0001) %MON advcfl_wvel_max              =   5.4073479770376E-03
(PID.TID 0000.0001) %MON advcfl_W_hf_max              =   5.4073479770376E-03
(PID.TID 0000.0001) %MON pe_b_mean                    =  -8.3027049623986E-01
(PID.TID 0000.0001) %MON ke_max                       =   2.7368726106611E-04
(PID.TID 0000.0001) %MON ke_mean                      =   4.2997037030483E-07
(PID.TID 0000.0001) %MON ke_vol                       =   4.2724768940805E+12
(PID.TID 0000.0001) // =======================================================
(PID.TID 0000.0001) // End MONITOR dynamic field statistics
(PID.TID 0000.0001) // =======================================================
(PID.TID 0000.0001) // =======================================================
(PID.TID 0000.0001) // Begin OBCS MONITOR field statistics
(PID.TID 0000.0001) // =======================================================
(PID.TID 0000.0001) %MON obc_N_vVel_max               =   1.5176696750963E-05
(PID.TID 0000.0001) %MON obc_N_vVel_min               =   1.5176696750962E-05
(PID.TID 0000.0001) %MON obc_N_vVel_mean              =   1.5176696750962E-05
(PID.TID 0000.0001) %MON obc_N_vVel_sd                =   4.0354824134963E-12
(PID.TID 0000.0001) %MON obc_N_vVel_Int               =   1.0016619855635E+03
(PID.TID 0000.0001) // =======================================================
(PID.TID 0000.0001) // End OBCS MONITOR field statistics
(PID.TID 0000.0001) // =======================================================
 cg2d: Sum(rhs),rhsMax =   4.51097588540318E+00  2.99939377789937E+02
(PID.TID 0000.0001)      cg2d_init_res =   7.57863033479493E-06
(PID.TID 0000.0001)      cg2d_iters(min,last) =      -1      82
(PID.TID 0000.0001)      cg2d_last_res =   9.52423604029910E-12
(PID.TID 0000.0001) // =======================================================
(PID.TID 0000.0001) // Begin MONITOR dynamic field statistics
(PID.TID 0000.0001) // =======================================================
(PID.TID 0000.0001) %MON time_tsnumber                =                  1119
(PID.TID 0000.0001) %MON time_secondsf                =   1.1190000000000E+05
(PID.TID 0000.0001) %MON dynstat_eta_max              =   5.7978037477598E+00
(PID.TID 0000.0001) %MON dynstat_eta_min              =  -1.4199097356523E+01
(PID.TID 0000.0001) %MON dynstat_eta_mean             =  -2.5055912968393E+00
(PID.TID 0000.0001) %MON dynstat_eta_sd               =   4.9504953812032E+00
(PID.TID 0000.0001) %MON dynstat_eta_del2             =   2.0715361035250E-01
(PID.TID 0000.0001) %MON dynstat_uvel_max             =   6.1196413144593E-03
(PID.TID 0000.0001) %MON dynstat_uvel_min             =  -2.7550394451339E-02
(PID.TID 0000.0001) %MON dynstat_uvel_mean            =  -1.1145910330673E-07
(PID.TID 0000.0001) %MON dynstat_uvel_sd              =   8.0550747116093E-04
(PID.TID 0000.0001) %MON dynstat_uvel_del2            =   1.1787687855384E-06
(PID.TID 0000.0001) %MON dynstat_vvel_max             =   2.1311930202213E-02
(PID.TID 0000.0001) %MON dynstat_vvel_min             =  -8.8306291698448E-03
(PID.TID 0000.0001) %MON dynstat_vvel_mean            =   1.5434272558319E-05
(PID.TID 0000.0001) %MON dynstat_vvel_sd              =   4.7714889640221E-04
(PID.TID 0000.0001) %MON dynstat_vvel_del2            =   9.5743264102935E-07
(PID.TID 0000.0001) %MON dynstat_wvel_max             =   1.0841135120939E-03
(PID.TID 0000.0001) %MON dynstat_wvel_min             =  -1.0482435187881E-03
(PID.TID 0000.0001) %MON dynstat_wvel_mean            =   7.0998276194262E-09
(PID.TID 0000.0001) %MON dynstat_wvel_sd              =   1.8922238548558E-05
(PID.TID 0000.0001) %MON dynstat_wvel_del2            =   7.9932659548893E-08
(PID.TID 0000.0001) %MON dynstat_theta_max            =   1.2000000000000E+00
(PID.TID 0000.0001) %MON dynstat_theta_min            =  -1.0000000000000E+00
(PID.TID 0000.0001) %MON dynstat_theta_mean           =   5.6867955862456E-01
(PID.TID 0000.0001) %MON dynstat_theta_sd             =   8.6835492135842E-01
(PID.TID 0000.0001) %MON dynstat_theta_del2           =   3.0750798137846E-06
(PID.TID 0000.0001) %MON dynstat_salt_max             =   3.4700000000000E+01
(PID.TID 0000.0001) %MON dynstat_salt_min             =   3.4000000000000E+01
(PID.TID 0000.0001) %MON dynstat_salt_mean            =   3.4499085990395E+01
(PID.TID 0000.0001) %MON dynstat_salt_sd              =   2.7627983212041E-01
(PID.TID 0000.0001) %MON dynstat_salt_del2            =   1.2136783230508E-06
(PID.TID 0000.0001) %MON advcfl_uvel_max              =   2.7550394451339E-03
(PID.TID 0000.0001) %MON advcfl_vvel_max              =   2.1311930202213E-03
(PID.TID 0000.0001) %MON advcfl_wvel_max              =   5.4205675604696E-03
(PID.TID 0000.0001) %MON advcfl_W_hf_max              =   5.4205675604696E-03
(PID.TID 0000.0001) %MON pe_b_mean                    =  -8.3027270632732E-01
(PID.TID 0000.0001) %MON ke_max                       =   2.7516423316204E-04
(PID.TID 0000.0001) %MON ke_mean                      =   4.3193761901237E-07
(PID.TID 0000.0001) %MON ke_vol                       =   4.2724768407556E+12
(PID.TID 0000.0001) // =======================================================
(PID.TID 0000.0001) // End MONITOR dynamic field statistics
(PID.TID 0000.0001) // =======================================================
(PID.TID 0000.0001) // =======================================================
(PID.TID 0000.0001) // Begin OBCS MONITOR field statistics
(PID.TID 0000.0001) // =======================================================
(PID.TID 0000.0001) %MON obc_N_vVel_max               =   1.5149119890651E-05
(PID.TID 0000.0001) %MON obc_N_vVel_min               =   1.5149119890650E-05
(PID.TID 0000.0001) %MON obc_N_vVel_mean              =   1.5149119890651E-05
(PID.TID 0000.0001) %MON obc_N_vVel_sd                =  -1.6052473762357E-23
(PID.TID 0000.0001) %MON obc_N_vVel_Int               =   9.9984191278294E+02
(PID.TID 0000.0001) // =======================================================
(PID.TID 0000.0001) // End OBCS MONITOR field statistics
(PID.TID 0000.0001) // =======================================================
 cg2d: Sum(rhs),rhsMax =   4.51099057675317E+00  2.99939464377894E+02
(PID.TID 0000.0001)      cg2d_init_res =   7.55603957465041E-06
(PID.TID 0000.0001)      cg2d_iters(min,last) =      -1      82
(PID.TID 0000.0001)      cg2d_last_res =   9.51961711025630E-12
(PID.TID 0000.0001) // =======================================================
(PID.TID 0000.0001) // Begin MONITOR dynamic field statistics
(PID.TID 0000.0001) // =======================================================
(PID.TID 0000.0001) %MON time_tsnumber                =                  1120
(PID.TID 0000.0001) %MON time_secondsf                =   1.1200000000000E+05
(PID.TID 0000.0001) %MON dynstat_eta_max              =   5.7977831131013E+00
(PID.TID 0000.0001) %MON dynstat_eta_min              =  -1.4199112765453E+01
(PID.TID 0000.0001) %MON dynstat_eta_mean             =  -2.5056001803798E+00
(PID.TID 0000.0001) %MON dynstat_eta_sd               =   4.9504986154857E+00
(PID.TID 0000.0001) %MON dynstat_eta_del2             =   2.0715364383555E-01
(PID.TID 0000.0001) %MON dynstat_uvel_max             =   6.1343111347050E-03
(PID.TID 0000.0001) %MON dynstat_uvel_min             =  -2.7620600578617E-02
(PID.TID 0000.0001) %MON dynstat_uvel_mean            =  -1.1118005028377E-07
(PID.TID 0000.0001) %MON dynstat_uvel_sd              =   8.0744570683782E-04
(PID.TID 0000.0001) %MON dynstat_uvel_del2            =   1.1815664713773E-06
(PID.TID 0000.0001) %MON dynstat_vvel_max             =   2.1358443770720E-02
(PID.TID 0000.0001) %MON dynstat_vvel_min             =  -8.8540686270111E-03
(PID.TID 0000.0001) %MON dynstat_vvel_mean            =   1.5396758678910E-05
(PID.TID 0000.0001) %MON dynstat_vvel_sd              =   4.7808230090800E-04
(PID.TID 0000.0001) %MON dynstat_vvel_del2            =   9.5943021555588E-07
(PID.TID 0000.0001) %MON dynstat_wvel_max             =   1.0867609704052E-03
(PID.TID 0000.0001) %MON dynstat_wvel_min             =  -1.0507410612671E-03
(PID.TID 0000.0001) %MON dynstat_wvel_mean            =   7.0293224367860E-09
(PID.TID 0000.0001) %MON dynstat_wvel_sd              =   1.8975938400172E-05
(PID.TID 0000.0001) %MON dynstat_wvel_del2            =   8.0045220359381E-08
(PID.TID 0000.0001) %MON dynstat_theta_max            =   1.2000000000000E+00
(PID.TID 0000.0001) %MON dynstat_theta_min            =  -1.0000000000000E+00
(PID.TID 0000.0001) %MON dynstat_theta_mean           =   5.6867861442159E-01
(PID.TID 0000.0001) %MON dynstat_theta_sd             =   8.6835441141627E-01
(PID.TID 0000.0001) %MON dynstat_theta_del2           =   3.0812842132737E-06
(PID.TID 0000.0001) %MON dynstat_salt_max             =   3.4700000000000E+01
(PID.TID 0000.0001) %MON dynstat_salt_min             =   3.4000000000000E+01
(PID.TID 0000.0001) %MON dynstat_salt_mean            =   3.4499085612553E+01
(PID.TID 0000.0001) %MON dynstat_salt_sd              =   2.7627963579863E-01
(PID.TID 0000.0001) %MON dynstat_salt_del2            =   1.2161748189290E-06
(PID.TID 0000.0001) %MON advcfl_uvel_max              =   2.7620600578617E-03
(PID.TID 0000.0001) %MON advcfl_vvel_max              =   2.1358443770720E-03
(PID.TID 0000.0001) %MON advcfl_wvel_max              =   5.4338048520258E-03
(PID.TID 0000.0001) %MON advcfl_W_hf_max              =   5.4338048520258E-03
(PID.TID 0000.0001) %MON pe_b_mean                    =  -8.3027490158593E-01
(PID.TID 0000.0001) %MON ke_max                       =   2.7664805009704E-04
(PID.TID 0000.0001) %MON ke_mean                      =   4.3391498735359E-07
(PID.TID 0000.0001) %MON ke_vol                       =   4.2724767876968E+12
(PID.TID 0000.0001) // =======================================================
(PID.TID 0000.0001) // End MONITOR dynamic field statistics
(PID.TID 0000.0001) // =======================================================
(PID.TID 0000.0001) // =======================================================
(PID.TID 0000.0001) // Begin OBCS MONITOR field statistics
(PID.TID 0000.0001) // =======================================================
(PID.TID 0000.0001) %MON obc_N_vVel_max               =   1.5117843886108E-05
(PID.TID 0000.0001) %MON obc_N_vVel_min               =   1.5117843886108E-05
(PID.TID 0000.0001) %MON obc_N_vVel_mean              =   1.5117843886108E-05
(PID.TID 0000.0001) %MON obc_N_vVel_sd                =  -1.5509636485369E-23
(PID.TID 0000.0001) %MON obc_N_vVel_Int               =   9.9777769648312E+02
(PID.TID 0000.0001) // =======================================================
(PID.TID 0000.0001) // End OBCS MONITOR field statistics
(PID.TID 0000.0001) // =======================================================
 cg2d: Sum(rhs),rhsMax =   4.51100518792445E+00  2.99939550002836E+02
(PID.TID 0000.0001)      cg2d_init_res =   7.53308921173265E-06
(PID.TID 0000.0001)      cg2d_iters(min,last) =      -1      82
(PID.TID 0000.0001)      cg2d_last_res =   9.51657942447193E-12
(PID.TID 0000.0001) // =======================================================
(PID.TID 0000.0001) // Begin MONITOR dynamic field statistics
(PID.TID 0000.0001) // =======================================================
(PID.TID 0000.0001) %MON time_tsnumber                =                  1121
(PID.TID 0000.0001) %MON time_secondsf                =   1.1210000000000E+05
(PID.TID 0000.0001) %MON dynstat_eta_max              =   5.7977625718155E+00
(PID.TID 0000.0001) %MON dynstat_eta_min              =  -1.4199128080804E+01
(PID.TID 0000.0001) %MON dynstat_eta_mean             =  -2.5056090113454E+00
(PID.TID 0000.0001) %MON dynstat_eta_sd               =   4.9505018304698E+00
(PID.TID 0000.0001) %MON dynstat_eta_del2             =   2.0715367735973E-01
(PID.TID 0000.0001) %MON dynstat_uvel_max             =   6.1490083199942E-03
(PID.TID 0000.0001) %MON dynstat_uvel_min             =  -2.7690924119175E-02
(PID.TID 0000.0001) %MON dynstat_uvel_mean            =  -1.1093886942129E-07
(PID.TID 0000.0001) %MON dynstat_uvel_sd              =   8.0938771696401E-04
(PID.TID 0000.0001) %MON dynstat_uvel_del2            =   1.1843712470630E-06
(PID.TID 0000.0001) %MON dynstat_vvel_max             =   2.1404999809519E-02
(PID.TID 0000.0001) %MON dynstat_vvel_min             =  -8.8775647029635E-03
(PID.TID 0000.0001) %MON dynstat_vvel_mean            =   1.5355931989834E-05
(PID.TID 0000.0001) %MON dynstat_vvel_sd              =   4.7902092258845E-04
(PID.TID 0000.0001) %MON dynstat_vvel_del2            =   9.6144724722205E-07
(PID.TID 0000.0001) %MON dynstat_wvel_max             =   1.0894119611373E-03
(PID.TID 0000.0001) %MON dynstat_wvel_min             =  -1.0532420407682E-03
(PID.TID 0000.0001) %MON dynstat_wvel_mean            =   6.9590906826126E-09
(PID.TID 0000.0001) %MON dynstat_wvel_sd              =   1.9047061452869E-05
(PID.TID 0000.0001) %MON dynstat_wvel_del2            =   8.0211806291152E-08
(PID.TID 0000.0001) %MON dynstat_theta_max            =   1.2000000000000E+00
(PID.TID 0000.0001) %MON dynstat_theta_min            =  -1.0000000000000E+00
(PID.TID 0000.0001) %MON dynstat_theta_mean           =   5.6867766851484E-01
(PID.TID 0000.0001) %MON dynstat_theta_sd             =   8.6835390056241E-01
(PID.TID 0000.0001) %MON dynstat_theta_del2           =   3.0874917026003E-06
(PID.TID 0000.0001) %MON dynstat_salt_max             =   3.4700000000000E+01
(PID.TID 0000.0001) %MON dynstat_salt_min             =   3.4000000000000E+01
(PID.TID 0000.0001) %MON dynstat_salt_mean            =   3.4499085234030E+01
(PID.TID 0000.0001) %MON dynstat_salt_sd              =   2.7627943912460E-01
(PID.TID 0000.0001) %MON dynstat_salt_del2            =   1.2186749285989E-06
(PID.TID 0000.0001) %MON advcfl_uvel_max              =   2.7690924119175E-03
(PID.TID 0000.0001) %MON advcfl_vvel_max              =   2.1404999809519E-03
(PID.TID 0000.0001) %MON advcfl_wvel_max              =   5.4470598056864E-03
(PID.TID 0000.0001) %MON advcfl_W_hf_max              =   5.4470598056864E-03
(PID.TID 0000.0001) %MON pe_b_mean                    =  -8.3027708120205E-01
(PID.TID 0000.0001) %MON ke_max                       =   2.7813873939016E-04
(PID.TID 0000.0001) %MON ke_mean                      =   4.3590235347129E-07
(PID.TID 0000.0001) %MON ke_vol                       =   4.2724767349285E+12
(PID.TID 0000.0001) // =======================================================
(PID.TID 0000.0001) // End MONITOR dynamic field statistics
(PID.TID 0000.0001) // =======================================================
(PID.TID 0000.0001) // =======================================================
(PID.TID 0000.0001) // Begin OBCS MONITOR field statistics
(PID.TID 0000.0001) // =======================================================
(PID.TID 0000.0001) %MON obc_N_vVel_max               =   1.5083293192432E-05
(PID.TID 0000.0001) %MON obc_N_vVel_min               =   1.5083293192432E-05
(PID.TID 0000.0001) %MON obc_N_vVel_mean              =   1.5083293192432E-05
(PID.TID 0000.0001) %MON obc_N_vVel_sd                =  -2.0317623795834E-23
(PID.TID 0000.0001) %MON obc_N_vVel_Int               =   9.9549735070052E+02
(PID.TID 0000.0001) // =======================================================
(PID.TID 0000.0001) // End OBCS MONITOR field statistics
(PID.TID 0000.0001) // =======================================================
 cg2d: Sum(rhs),rhsMax =   4.51101971427180E+00  2.99939634598043E+02
(PID.TID 0000.0001)      cg2d_init_res =   7.51016071425441E-06
(PID.TID 0000.0001)      cg2d_iters(min,last) =      -1      82
(PID.TID 0000.0001)      cg2d_last_res =   9.51542299145870E-12
(PID.TID 0000.0001) // =======================================================
(PID.TID 0000.0001) // Begin MONITOR dynamic field statistics
(PID.TID 0000.0001) // =======================================================
(PID.TID 0000.0001) %MON time_tsnumber                =                  1122
(PID.TID 0000.0001) %MON time_secondsf                =   1.1220000000000E+05
(PID.TID 0000.0001) %MON dynstat_eta_max              =   5.7977421292371E+00
(PID.TID 0000.0001) %MON dynstat_eta_min              =  -1.4199143298312E+01
(PID.TID 0000.0001) %MON dynstat_eta_mean             =  -2.5056177865986E+00
(PID.TID 0000.0001) %MON dynstat_eta_sd               =   4.9505050255833E+00
(PID.TID 0000.0001) %MON dynstat_eta_del2             =   2.0715371092497E-01
(PID.TID 0000.0001) %MON dynstat_uvel_max             =   6.1637328541622E-03
(PID.TID 0000.0001) %MON dynstat_uvel_min             =  -2.7761365216202E-02
(PID.TID 0000.0001) %MON dynstat_uvel_mean            =  -1.1074162762065E-07
(PID.TID 0000.0001) %MON dynstat_uvel_sd              =   8.1133350513396E-04
(PID.TID 0000.0001) %MON dynstat_uvel_del2            =   1.1871831409934E-06
(PID.TID 0000.0001) %MON dynstat_vvel_max             =   2.1451598254368E-02
(PID.TID 0000.0001) %MON dynstat_vvel_min             =  -8.9011173929219E-03
(PID.TID 0000.0001) %MON dynstat_vvel_mean            =   1.5312339894931E-05
(PID.TID 0000.0001) %MON dynstat_vvel_sd              =   4.7996422096153E-04
(PID.TID 0000.0001) %MON dynstat_vvel_del2            =   9.6348068744426E-07
(PID.TID 0000.0001) %MON dynstat_wvel_max             =   1.0920664750441E-03
(PID.TID 0000.0001) %MON dynstat_wvel_min             =  -1.0557464576821E-03
(PID.TID 0000.0001) %MON dynstat_wvel_mean            =   6.8900515955771E-09
(PID.TID 0000.0001) %MON dynstat_wvel_sd              =   1.9132694535854E-05
(PID.TID 0000.0001) %MON dynstat_wvel_del2            =   8.0425605298334E-08
(PID.TID 0000.0001) %MON dynstat_theta_max            =   1.2000000000000E+00
(PID.TID 0000.0001) %MON dynstat_theta_min            =  -1.0000000000000E+00
(PID.TID 0000.0001) %MON dynstat_theta_mean           =   5.6867672090206E-01
(PID.TID 0000.0001) %MON dynstat_theta_sd             =   8.6835338878909E-01
(PID.TID 0000.0001) %MON dynstat_theta_del2           =   3.0937051260966E-06
(PID.TID 0000.0001) %MON dynstat_salt_max             =   3.4700000000000E+01
(PID.TID 0000.0001) %MON dynstat_salt_min             =   3.4000000000000E+01
(PID.TID 0000.0001) %MON dynstat_salt_mean            =   3.4499084854824E+01
(PID.TID 0000.0001) %MON dynstat_salt_sd              =   2.7627924209567E-01
(PID.TID 0000.0001) %MON dynstat_salt_del2            =   1.2211794309054E-06
(PID.TID 0000.0001) %MON advcfl_uvel_max              =   2.7761365216202E-03
(PID.TID 0000.0001) %MON advcfl_vvel_max              =   2.1451598254368E-03
(PID.TID 0000.0001) %MON advcfl_wvel_max              =   5.4603323752206E-03
(PID.TID 0000.0001) %MON advcfl_W_hf_max              =   5.4603323752206E-03
(PID.TID 0000.0001) %MON pe_b_mean                    =  -8.3027924450461E-01
(PID.TID 0000.0001) %MON ke_max                       =   2.7963632862942E-04
(PID.TID 0000.0001) %MON ke_mean                      =   4.3789950580948E-07
(PID.TID 0000.0001) %MON ke_vol                       =   4.2724766824726E+12
(PID.TID 0000.0001) // =======================================================
(PID.TID 0000.0001) // End MONITOR dynamic field statistics
(PID.TID 0000.0001) // =======================================================
(PID.TID 0000.0001) // =======================================================
(PID.TID 0000.0001) // Begin OBCS MONITOR field statistics
(PID.TID 0000.0001) // =======================================================
(PID.TID 0000.0001) %MON obc_N_vVel_max               =   1.5045933030711E-05
(PID.TID 0000.0001) %MON obc_N_vVel_min               =   1.5045933030710E-05
(PID.TID 0000.0001) %MON obc_N_vVel_mean              =   1.5045933030711E-05
(PID.TID 0000.0001) %MON obc_N_vVel_sd                =  -1.2459407976580E-23
(PID.TID 0000.0001) %MON obc_N_vVel_Int               =   9.9303158002692E+02
(PID.TID 0000.0001) // =======================================================
(PID.TID 0000.0001) // End OBCS MONITOR field statistics
(PID.TID 0000.0001) // =======================================================
 cg2d: Sum(rhs),rhsMax =   4.51103415194089E+00  2.99939718110703E+02
(PID.TID 0000.0001)      cg2d_init_res =   7.48760664705164E-06
(PID.TID 0000.0001)      cg2d_iters(min,last) =      -1      82
(PID.TID 0000.0001)      cg2d_last_res =   9.51639391008763E-12
(PID.TID 0000.0001) // =======================================================
(PID.TID 0000.0001) // Begin MONITOR dynamic field statistics
(PID.TID 0000.0001) // =======================================================
(PID.TID 0000.0001) %MON time_tsnumber                =                  1123
(PID.TID 0000.0001) %MON time_secondsf                =   1.1230000000000E+05
(PID.TID 0000.0001) %MON dynstat_eta_max              =   5.7977217895140E+00
(PID.TID 0000.0001) %MON dynstat_eta_min              =  -1.4199158414758E+01
(PID.TID 0000.0001) %MON dynstat_eta_mean             =  -2.5056265035572E+00
(PID.TID 0000.0001) %MON dynstat_eta_sd               =   4.9505082004620E+00
(PID.TID 0000.0001) %MON dynstat_eta_del2             =   2.0715374453131E-01
(PID.TID 0000.0001) %MON dynstat_uvel_max             =   6.1784847174380E-03
(PID.TID 0000.0001) %MON dynstat_uvel_min             =  -2.7831924012522E-02
(PID.TID 0000.0001) %MON dynstat_uvel_mean            =  -1.1059197450336E-07
(PID.TID 0000.0001) %MON dynstat_uvel_sd              =   8.1328307620597E-04
(PID.TID 0000.0001) %MON dynstat_uvel_del2            =   1.1900021845834E-06
(PID.TID 0000.0001) %MON dynstat_vvel_max             =   2.1498239045089E-02
(PID.TID 0000.0001) %MON dynstat_vvel_min             =  -8.9247266837322E-03
(PID.TID 0000.0001) %MON dynstat_vvel_mean            =   1.5266563975531E-05
(PID.TID 0000.0001) %MON dynstat_vvel_sd              =   4.8091150196491E-04
(PID.TID 0000.0001) %MON dynstat_vvel_del2            =   9.6552692504014E-07
(PID.TID 0000.0001) %MON dynstat_wvel_max             =   1.0947245028466E-03
(PID.TID 0000.0001) %MON dynstat_wvel_min             =  -1.0582543128420E-03
(PID.TID 0000.0001) %MON dynstat_wvel_mean            =   6.8231078697269E-09
(PID.TID 0000.0001) %MON dynstat_wvel_sd              =   1.9229239472576E-05
(PID.TID 0000.0001) %MON dynstat_wvel_del2            =   8.0677677411501E-08
(PID.TID 0000.0001) %MON dynstat_theta_max            =   1.2000000000000E+00
(PID.TID 0000.0001) %MON dynstat_theta_min            =  -1.0000000000000E+00
(PID.TID 0000.0001) %MON dynstat_theta_mean           =   5.6867577158114E-01
(PID.TID 0000.0001) %MON dynstat_theta_sd             =   8.6835287608606E-01
(PID.TID 0000.0001) %MON dynstat_theta_del2           =   3.0999258200059E-06
(PID.TID 0000.0001) %MON dynstat_salt_max             =   3.4700000000000E+01
(PID.TID 0000.0001) %MON dynstat_salt_min             =   3.4000000000000E+01
(PID.TID 0000.0001) %MON dynstat_salt_mean            =   3.4499084474934E+01
(PID.TID 0000.0001) %MON dynstat_salt_sd              =   2.7627904470886E-01
(PID.TID 0000.0001) %MON dynstat_salt_del2            =   1.2236884135576E-06
(PID.TID 0000.0001) %MON advcfl_uvel_max              =   2.7831924012522E-03
(PID.TID 0000.0001) %MON advcfl_vvel_max              =   2.1498239045089E-03
(PID.TID 0000.0001) %MON advcfl_wvel_max              =   5.4736225142331E-03
(PID.TID 0000.0001) %MON advcfl_W_hf_max              =   5.4736225142331E-03
(PID.TID 0000.0001) %MON pe_b_mean                    =  -8.3028139097304E-01
(PID.TID 0000.0001) %MON ke_max                       =   2.8114084547240E-04
(PID.TID 0000.0001) %MON ke_mean                      =   4.3990615851719E-07
(PID.TID 0000.0001) %MON ke_vol                       =   4.2724766303476E+12
(PID.TID 0000.0001) // =======================================================
(PID.TID 0000.0001) // End MONITOR dynamic field statistics
(PID.TID 0000.0001) // =======================================================
(PID.TID 0000.0001) // =======================================================
(PID.TID 0000.0001) // Begin OBCS MONITOR field statistics
(PID.TID 0000.0001) // =======================================================
(PID.TID 0000.0001) %MON obc_N_vVel_max               =   1.5006263336623E-05
(PID.TID 0000.0001) %MON obc_N_vVel_min               =   1.5006263336623E-05
(PID.TID 0000.0001) %MON obc_N_vVel_mean              =   1.5006263336623E-05
(PID.TID 0000.0001) %MON obc_N_vVel_sd                =   4.6347434160087E-12
(PID.TID 0000.0001) %MON obc_N_vVel_Int               =   9.9041338021709E+02
(PID.TID 0000.0001) // =======================================================
(PID.TID 0000.0001) // End OBCS MONITOR field statistics
(PID.TID 0000.0001) // =======================================================
 cg2d: Sum(rhs),rhsMax =   4.51104849791172E+00  2.99939800502648E+02
(PID.TID 0000.0001)      cg2d_init_res =   7.46575315530266E-06
(PID.TID 0000.0001)      cg2d_iters(min,last) =      -1      82
(PID.TID 0000.0001)      cg2d_last_res =   9.51963339319760E-12
(PID.TID 0000.0001) // =======================================================
(PID.TID 0000.0001) // Begin MONITOR dynamic field statistics
(PID.TID 0000.0001) // =======================================================
(PID.TID 0000.0001) %MON time_tsnumber                =                  1124
(PID.TID 0000.0001) %MON time_secondsf                =   1.1240000000000E+05
(PID.TID 0000.0001) %MON dynstat_eta_max              =   5.7977015557673E+00
(PID.TID 0000.0001) %MON dynstat_eta_min              =  -1.4199173428007E+01
(PID.TID 0000.0001) %MON dynstat_eta_mean             =  -2.5056351602248E+00
(PID.TID 0000.0001) %MON dynstat_eta_sd               =   4.9505113549557E+00
(PID.TID 0000.0001) %MON dynstat_eta_del2             =   2.0715377817904E-01
(PID.TID 0000.0001) %MON dynstat_uvel_max             =   6.1932639368152E-03
(PID.TID 0000.0001) %MON dynstat_uvel_min             =  -2.7902600634253E-02
(PID.TID 0000.0001) %MON dynstat_uvel_mean            =  -1.1049112400756E-07
(PID.TID 0000.0001) %MON dynstat_uvel_sd              =   8.1523643662913E-04
(PID.TID 0000.0001) %MON dynstat_uvel_del2            =   1.1928284153878E-06
(PID.TID 0000.0001) %MON dynstat_vvel_max             =   2.1544922124037E-02
(PID.TID 0000.0001) %MON dynstat_vvel_min             =  -8.9483925612122E-03
(PID.TID 0000.0001) %MON dynstat_vvel_mean            =   1.5219212393761E-05
(PID.TID 0000.0001) %MON dynstat_vvel_sd              =   4.8186195918899E-04
(PID.TID 0000.0001) %MON dynstat_vvel_del2            =   9.6758201136709E-07
(PID.TID 0000.0001) %MON dynstat_wvel_max             =   1.0973860353089E-03
(PID.TID 0000.0001) %MON dynstat_wvel_min             =  -1.0607656074345E-03
(PID.TID 0000.0001) %MON dynstat_wvel_mean            =   6.7591348911904E-09
(PID.TID 0000.0001) %MON dynstat_wvel_sd              =   1.9332645481277E-05
(PID.TID 0000.0001) %MON dynstat_wvel_del2            =   8.0957600207423E-08
(PID.TID 0000.0001) %MON dynstat_theta_max            =   1.2000000000000E+00
(PID.TID 0000.0001) %MON dynstat_theta_min            =  -1.0000000000000E+00
(PID.TID 0000.0001) %MON dynstat_theta_mean           =   5.6867482055001E-01
(PID.TID 0000.0001) %MON dynstat_theta_sd             =   8.6835236244809E-01
(PID.TID 0000.0001) %MON dynstat_theta_del2           =   3.1061610530262E-06
(PID.TID 0000.0001) %MON dynstat_salt_max             =   3.4700000000000E+01
(PID.TID 0000.0001) %MON dynstat_salt_min             =   3.4000000000000E+01
(PID.TID 0000.0001) %MON dynstat_salt_mean            =   3.4499084094361E+01
(PID.TID 0000.0001) %MON dynstat_salt_sd              =   2.7627884696234E-01
(PID.TID 0000.0001) %MON dynstat_salt_del2            =   1.2262035124877E-06
(PID.TID 0000.0001) %MON advcfl_uvel_max              =   2.7902600634253E-03
(PID.TID 0000.0001) %MON advcfl_vvel_max              =   2.1544922124037E-03
(PID.TID 0000.0001) %MON advcfl_wvel_max              =   5.4869301765443E-03
(PID.TID 0000.0001) %MON advcfl_W_hf_max              =   5.4869301765443E-03
(PID.TID 0000.0001) %MON pe_b_mean                    =  -8.3028352024337E-01
(PID.TID 0000.0001) %MON ke_max                       =   2.8265231719002E-04
(PID.TID 0000.0001) %MON ke_mean                      =   4.4192197069893E-07
(PID.TID 0000.0001) %MON ke_vol                       =   4.2724765785689E+12
(PID.TID 0000.0001) // =======================================================
(PID.TID 0000.0001) // End MONITOR dynamic field statistics
(PID.TID 0000.0001) // =======================================================
(PID.TID 0000.0001) // =======================================================
(PID.TID 0000.0001) // Begin OBCS MONITOR field statistics
(PID.TID 0000.0001) // =======================================================
(PID.TID 0000.0001) %MON obc_N_vVel_max               =   1.4964812178422E-05
(PID.TID 0000.0001) %MON obc_N_vVel_min               =   1.4964812178422E-05
(PID.TID 0000.0001) %MON obc_N_vVel_mean              =   1.4964812178422E-05
(PID.TID 0000.0001) %MON obc_N_vVel_sd                =   2.1146974220003E-12
(PID.TID 0000.0001) %MON obc_N_vVel_Int               =   9.8767760377588E+02
(PID.TID 0000.0001) // =======================================================
(PID.TID 0000.0001) // End OBCS MONITOR field statistics
(PID.TID 0000.0001) // =======================================================
 cg2d: Sum(rhs),rhsMax =   4.51106275003877E+00  2.99939881750572E+02
(PID.TID 0000.0001)      cg2d_init_res =   7.44491107457602E-06
(PID.TID 0000.0001)      cg2d_iters(min,last) =      -1      82
(PID.TID 0000.0001)      cg2d_last_res =   9.52521490882665E-12
(PID.TID 0000.0001) // =======================================================
(PID.TID 0000.0001) // Begin MONITOR dynamic field statistics
(PID.TID 0000.0001) // =======================================================
(PID.TID 0000.0001) %MON time_tsnumber                =                  1125
(PID.TID 0000.0001) %MON time_secondsf                =   1.1250000000000E+05
(PID.TID 0000.0001) %MON dynstat_eta_max              =   5.7976814299635E+00
(PID.TID 0000.0001) %MON dynstat_eta_min              =  -1.4199188337002E+01
(PID.TID 0000.0001) %MON dynstat_eta_mean             =  -2.5056437552149E+00
(PID.TID 0000.0001) %MON dynstat_eta_sd               =   4.9505144891290E+00
(PID.TID 0000.0001) %MON dynstat_eta_del2             =   2.0715381186863E-01
(PID.TID 0000.0001) %MON dynstat_uvel_max             =   6.2080705393939E-03
(PID.TID 0000.0001) %MON dynstat_uvel_min             =  -2.7973395209759E-02
(PID.TID 0000.0001) %MON dynstat_uvel_mean            =  -1.1043803207856E-07
(PID.TID 0000.0001) %MON dynstat_uvel_sd              =   8.1719359374536E-04
(PID.TID 0000.0001) %MON dynstat_uvel_del2            =   1.1956618711957E-06
(PID.TID 0000.0001) %MON dynstat_vvel_max             =   2.1591647434975E-02
(PID.TID 0000.0001) %MON dynstat_vvel_min             =  -8.9721150089019E-03
(PID.TID 0000.0001) %MON dynstat_vvel_mean            =   1.5170911840010E-05
(PID.TID 0000.0001) %MON dynstat_vvel_sd              =   4.8281472050796E-04
(PID.TID 0000.0001) %MON dynstat_vvel_del2            =   9.6964189360628E-07
(PID.TID 0000.0001) %MON dynstat_wvel_max             =   1.1000510631722E-03
(PID.TID 0000.0001) %MON dynstat_wvel_min             =  -1.0632803432873E-03
(PID.TID 0000.0001) %MON dynstat_wvel_mean            =   6.6989675055536E-09
(PID.TID 0000.0001) %MON dynstat_wvel_sd              =   1.9438651388201E-05
(PID.TID 0000.0001) %MON dynstat_wvel_del2            =   8.1254120382115E-08
(PID.TID 0000.0001) %MON dynstat_theta_max            =   1.2000000000000E+00
(PID.TID 0000.0001) %MON dynstat_theta_min            =  -1.0000000000000E+00
(PID.TID 0000.0001) %MON dynstat_theta_mean           =   5.6867386780666E-01
(PID.TID 0000.0001) %MON dynstat_theta_sd             =   8.6835184787065E-01
(PID.TID 0000.0001) %MON dynstat_theta_del2           =   3.1124154759167E-06
(PID.TID 0000.0001) %MON dynstat_salt_max             =   3.4700000000000E+01
(PID.TID 0000.0001) %MON dynstat_salt_min             =   3.4000000000000E+01
(PID.TID 0000.0001) %MON dynstat_salt_mean            =   3.4499083713102E+01
(PID.TID 0000.0001) %MON dynstat_salt_sd              =   2.7627864885496E-01
(PID.TID 0000.0001) %MON dynstat_salt_del2            =   1.2287262424306E-06
(PID.TID 0000.0001) %MON advcfl_uvel_max              =   2.7973395209759E-03
(PID.TID 0000.0001) %MON advcfl_vvel_max              =   2.1591647434975E-03
(PID.TID 0000.0001) %MON advcfl_wvel_max              =   5.5002553158612E-03
(PID.TID 0000.0001) %MON advcfl_W_hf_max              =   5.5002553158612E-03
(PID.TID 0000.0001) %MON pe_b_mean                    =  -8.3028563211237E-01
(PID.TID 0000.0001) %MON ke_max                       =   2.8417077119482E-04
(PID.TID 0000.0001) %MON ke_mean                      =   4.4394656768382E-07
(PID.TID 0000.0001) %MON ke_vol                       =   4.2724765271483E+12
(PID.TID 0000.0001) // =======================================================
(PID.TID 0000.0001) // End MONITOR dynamic field statistics
(PID.TID 0000.0001) // =======================================================
(PID.TID 0000.0001) // =======================================================
(PID.TID 0000.0001) // Begin OBCS MONITOR field statistics
(PID.TID 0000.0001) // =======================================================
(PID.TID 0000.0001) %MON obc_N_vVel_max               =   1.4922128851120E-05
(PID.TID 0000.0001) %MON obc_N_vVel_min               =   1.4922128851120E-05
(PID.TID 0000.0001) %MON obc_N_vVel_mean              =   1.4922128851120E-05
(PID.TID 0000.0001) %MON obc_N_vVel_sd                =   3.4818624115163E-12
(PID.TID 0000.0001) %MON obc_N_vVel_Int               =   9.8486050417392E+02
(PID.TID 0000.0001) // =======================================================
(PID.TID 0000.0001) // End OBCS MONITOR field statistics
(PID.TID 0000.0001) // =======================================================
 cg2d: Sum(rhs),rhsMax =   4.51107690707011E+00  2.99939961846710E+02
(PID.TID 0000.0001)      cg2d_init_res =   7.42537208775297E-06
(PID.TID 0000.0001)      cg2d_iters(min,last) =      -1      82
(PID.TID 0000.0001)      cg2d_last_res =   9.53313621061570E-12
(PID.TID 0000.0001) // =======================================================
(PID.TID 0000.0001) // Begin MONITOR dynamic field statistics
(PID.TID 0000.0001) // =======================================================
(PID.TID 0000.0001) %MON time_tsnumber                =                  1126
(PID.TID 0000.0001) %MON time_secondsf                =   1.1260000000000E+05
(PID.TID 0000.0001) %MON dynstat_eta_max              =   5.7976614127819E+00
(PID.TID 0000.0001) %MON dynstat_eta_min              =  -1.4199203141771E+01
(PID.TID 0000.0001) %MON dynstat_eta_mean             =  -2.5056522877670E+00
(PID.TID 0000.0001) %MON dynstat_eta_sd               =   4.9505176032593E+00
(PID.TID 0000.0001) %MON dynstat_eta_del2             =   2.0715384560077E-01
(PID.TID 0000.0001) %MON dynstat_uvel_max             =   6.2229045154076E-03
(PID.TID 0000.0001) %MON dynstat_uvel_min             =  -2.8044307874165E-02
(PID.TID 0000.0001) %MON dynstat_uvel_mean            =  -1.1042978057640E-07
(PID.TID 0000.0001) %MON dynstat_uvel_sd              =   8.1915455549503E-04
(PID.TID 0000.0001) %MON dynstat_uvel_del2            =   1.1985025879356E-06
(PID.TID 0000.0001) %MON dynstat_vvel_max             =   2.1638414921402E-02
(PID.TID 0000.0001) %MON dynstat_vvel_min             =  -8.9958940033945E-03
(PID.TID 0000.0001) %MON dynstat_vvel_mean            =   1.5122299319983E-05
(PID.TID 0000.0001) %MON dynstat_vvel_sd              =   4.8376889661450E-04
(PID.TID 0000.0001) %MON dynstat_vvel_del2            =   9.7170263745739E-07
(PID.TID 0000.0001) %MON dynstat_wvel_max             =   1.1027195770621E-03
(PID.TID 0000.0001) %MON dynstat_wvel_min             =  -1.0657985223285E-03
(PID.TID 0000.0001) %MON dynstat_wvel_mean            =   6.6433889566063E-09
(PID.TID 0000.0001) %MON dynstat_wvel_sd              =   1.9543021393342E-05
(PID.TID 0000.0001) %MON dynstat_wvel_del2            =   8.1555768157927E-08
(PID.TID 0000.0001) %MON dynstat_theta_max            =   1.2000000000000E+00
(PID.TID 0000.0001) %MON dynstat_theta_min            =  -1.0000000000000E+00
(PID.TID 0000.0001) %MON dynstat_theta_mean           =   5.6867291334926E-01
(PID.TID 0000.0001) %MON dynstat_theta_sd             =   8.6835133235055E-01
(PID.TID 0000.0001) %MON dynstat_theta_del2           =   3.1186937184555E-06
(PID.TID 0000.0001) %MON dynstat_salt_max             =   3.4700000000000E+01
(PID.TID 0000.0001) %MON dynstat_salt_min             =   3.4000000000000E+01
(PID.TID 0000.0001) %MON dynstat_salt_mean            =   3.4499083331158E+01
(PID.TID 0000.0001) %MON dynstat_salt_sd              =   2.7627845038556E-01
(PID.TID 0000.0001) %MON dynstat_salt_del2            =   1.2312577344126E-06
(PID.TID 0000.0001) %MON advcfl_uvel_max              =   2.8044307874165E-03
(PID.TID 0000.0001) %MON advcfl_vvel_max              =   2.1638414921402E-03
(PID.TID 0000.0001) %MON advcfl_wvel_max              =   5.5135978853105E-03
(PID.TID 0000.0001) %MON advcfl_W_hf_max              =   5.5135978853105E-03
(PID.TID 0000.0001) %MON pe_b_mean                    =  -8.3028772653972E-01
(PID.TID 0000.0001) %MON ke_max                       =   2.8569623518996E-04
(PID.TID 0000.0001) %MON ke_mean                      =   4.4597956380448E-07
(PID.TID 0000.0001) %MON ke_vol                       =   4.2724764760940E+12
(PID.TID 0000.0001) // =======================================================
(PID.TID 0000.0001) // End MONITOR dynamic field statistics
(PID.TID 0000.0001) // =======================================================
(PID.TID 0000.0001) // =======================================================
(PID.TID 0000.0001) // Begin OBCS MONITOR field statistics
(PID.TID 0000.0001) // =======================================================
(PID.TID 0000.0001) %MON obc_N_vVel_max               =   1.4878776781558E-05
(PID.TID 0000.0001) %MON obc_N_vVel_min               =   1.4878776781557E-05
(PID.TID 0000.0001) %MON obc_N_vVel_mean              =   1.4878776781558E-05
(PID.TID 0000.0001) %MON obc_N_vVel_sd                =  -6.2038545941477E-24
(PID.TID 0000.0001) %MON obc_N_vVel_Int               =   9.8199926758280E+02
(PID.TID 0000.0001) // =======================================================
(PID.TID 0000.0001) // End OBCS MONITOR field statistics
(PID.TID 0000.0001) // =======================================================
 cg2d: Sum(rhs),rhsMax =   4.51109096868031E+00  2.99940040797492E+02
(PID.TID 0000.0001)      cg2d_init_res =   7.40740465863365E-06
(PID.TID 0000.0001)      cg2d_iters(min,last) =      -1      82
(PID.TID 0000.0001)      cg2d_last_res =   9.54335023328671E-12
(PID.TID 0000.0001) // =======================================================
(PID.TID 0000.0001) // Begin MONITOR dynamic field statistics
(PID.TID 0000.0001) // =======================================================
(PID.TID 0000.0001) %MON time_tsnumber                =                  1127
(PID.TID 0000.0001) %MON time_secondsf                =   1.1270000000000E+05
(PID.TID 0000.0001) %MON dynstat_eta_max              =   5.7976415038140E+00
(PID.TID 0000.0001) %MON dynstat_eta_min              =  -1.4199217843423E+01
(PID.TID 0000.0001) %MON dynstat_eta_mean             =  -2.5056607577540E+00
(PID.TID 0000.0001) %MON dynstat_eta_sd               =   4.9505206978327E+00
(PID.TID 0000.0001) %MON dynstat_eta_del2             =   2.0715387937631E-01
(PID.TID 0000.0001) %MON dynstat_uvel_max             =   6.2377658464712E-03
(PID.TID 0000.0001) %MON dynstat_uvel_min             =  -2.8115338760319E-02
(PID.TID 0000.0001) %MON dynstat_uvel_mean            =  -1.1046207592035E-07
(PID.TID 0000.0001) %MON dynstat_uvel_sd              =   8.2111933050407E-04
(PID.TID 0000.0001) %MON dynstat_uvel_del2            =   1.2013506010277E-06
(PID.TID 0000.0001) %MON dynstat_vvel_max             =   2.1685224525251E-02
(PID.TID 0000.0001) %MON dynstat_vvel_min             =  -9.0197295177390E-03
(PID.TID 0000.0001) %MON dynstat_vvel_mean            =   1.5074013782181E-05
(PID.TID 0000.0001) %MON dynstat_vvel_sd              =   4.8472362895517E-04
(PID.TID 0000.0001) %MON dynstat_vvel_del2            =   9.7376062957575E-07
(PID.TID 0000.0001) %MON dynstat_wvel_max             =   1.1053915679068E-03
(PID.TID 0000.0001) %MON dynstat_wvel_min             =  -1.0683201462685E-03
(PID.TID 0000.0001) %MON dynstat_wvel_mean            =   6.5931200691124E-09
(PID.TID 0000.0001) %MON dynstat_wvel_sd              =   1.9641761583737E-05
(PID.TID 0000.0001) %MON dynstat_wvel_del2            =   8.1851406764753E-08
(PID.TID 0000.0001) %MON dynstat_theta_max            =   1.2000000000000E+00
(PID.TID 0000.0001) %MON dynstat_theta_min            =  -1.0000000000000E+00
(PID.TID 0000.0001) %MON dynstat_theta_mean           =   5.6867195717604E-01
(PID.TID 0000.0001) %MON dynstat_theta_sd             =   8.6835081588789E-01
(PID.TID 0000.0001) %MON dynstat_theta_del2           =   3.1250001474392E-06
(PID.TID 0000.0001) %MON dynstat_salt_max             =   3.4700000000000E+01
(PID.TID 0000.0001) %MON dynstat_salt_min             =   3.4000000000000E+01
(PID.TID 0000.0001) %MON dynstat_salt_mean            =   3.4499082948527E+01
(PID.TID 0000.0001) %MON dynstat_salt_sd              =   2.7627825155424E-01
(PID.TID 0000.0001) %MON dynstat_salt_del2            =   1.2337990417140E-06
(PID.TID 0000.0001) %MON advcfl_uvel_max              =   2.8115338760319E-03
(PID.TID 0000.0001) %MON advcfl_vvel_max              =   2.1685224525251E-03
(PID.TID 0000.0001) %MON advcfl_wvel_max              =   5.5269578395342E-03
(PID.TID 0000.0001) %MON advcfl_W_hf_max              =   5.5269578395342E-03
(PID.TID 0000.0001) %MON pe_b_mean                    =  -8.3028980364782E-01
(PID.TID 0000.0001) %MON ke_max                       =   2.8722873691709E-04
(PID.TID 0000.0001) %MON ke_mean                      =   4.4802058547632E-07
(PID.TID 0000.0001) %MON ke_vol                       =   4.2724764254107E+12
(PID.TID 0000.0001) // =======================================================
(PID.TID 0000.0001) // End MONITOR dynamic field statistics
(PID.TID 0000.0001) // =======================================================
(PID.TID 0000.0001) // =======================================================
(PID.TID 0000.0001) // Begin OBCS MONITOR field statistics
(PID.TID 0000.0001) // =======================================================
(PID.TID 0000.0001) %MON obc_N_vVel_max               =   1.4835326146428E-05
(PID.TID 0000.0001) %MON obc_N_vVel_min               =   1.4835326146428E-05
(PID.TID 0000.0001) %MON obc_N_vVel_mean              =   1.4835326146428E-05
(PID.TID 0000.0001) %MON obc_N_vVel_sd                =  -3.4638188150658E-24
(PID.TID 0000.0001) %MON obc_N_vVel_Int               =   9.7913152566424E+02
(PID.TID 0000.0001) // =======================================================
(PID.TID 0000.0001) // End OBCS MONITOR field statistics
(PID.TID 0000.0001) // =======================================================
 cg2d: Sum(rhs),rhsMax =   4.51110493547199E+00  2.99940118623310E+02
(PID.TID 0000.0001)      cg2d_init_res =   7.39125806890170E-06
(PID.TID 0000.0001)      cg2d_iters(min,last) =      -1      82
(PID.TID 0000.0001)      cg2d_last_res =   9.55575309410729E-12
(PID.TID 0000.0001) // =======================================================
(PID.TID 0000.0001) // Begin MONITOR dynamic field statistics
(PID.TID 0000.0001) // =======================================================
(PID.TID 0000.0001) %MON time_tsnumber                =                  1128
(PID.TID 0000.0001) %MON time_secondsf                =   1.1280000000000E+05
(PID.TID 0000.0001) %MON dynstat_eta_max              =   5.7976217012465E+00
(PID.TID 0000.0001) %MON dynstat_eta_min              =  -1.4199232444114E+01
(PID.TID 0000.0001) %MON dynstat_eta_mean             =  -2.5056691656809E+00
(PID.TID 0000.0001) %MON dynstat_eta_sd               =   4.9505237735367E+00
(PID.TID 0000.0001) %MON dynstat_eta_del2             =   2.0715391319626E-01
(PID.TID 0000.0001) %MON dynstat_uvel_max             =   6.2526545194679E-03
(PID.TID 0000.0001) %MON dynstat_uvel_min             =  -2.8186487998047E-02
(PID.TID 0000.0001) %MON dynstat_uvel_mean            =  -1.1052979971695E-07
(PID.TID 0000.0001) %MON dynstat_uvel_sd              =   8.2308792791788E-04
(PID.TID 0000.0001) %MON dynstat_uvel_del2            =   1.2042059442620E-06
(PID.TID 0000.0001) %MON dynstat_vvel_max             =   2.1732076186750E-02
(PID.TID 0000.0001) %MON dynstat_vvel_min             =  -9.0436215265264E-03
(PID.TID 0000.0001) %MON dynstat_vvel_mean            =   1.5026687588337E-05
(PID.TID 0000.0001) %MON dynstat_vvel_sd              =   4.8567813499147E-04
(PID.TID 0000.0001) %MON dynstat_vvel_del2            =   9.7581275390572E-07
(PID.TID 0000.0001) %MON dynstat_wvel_max             =   1.1080670297103E-03
(PID.TID 0000.0001) %MON dynstat_wvel_min             =  -1.0708452168811E-03
(PID.TID 0000.0001) %MON dynstat_wvel_mean            =   6.5488091612329E-09
(PID.TID 0000.0001) %MON dynstat_wvel_sd              =   1.9731308314725E-05
(PID.TID 0000.0001) %MON dynstat_wvel_del2            =   8.2130704213752E-08
(PID.TID 0000.0001) %MON dynstat_theta_max            =   1.2000000000000E+00
(PID.TID 0000.0001) %MON dynstat_theta_min            =  -1.0000000000000E+00
(PID.TID 0000.0001) %MON dynstat_theta_mean           =   5.6867099928529E-01
(PID.TID 0000.0001) %MON dynstat_theta_sd             =   8.6835029848310E-01
(PID.TID 0000.0001) %MON dynstat_theta_del2           =   3.1313386129401E-06
(PID.TID 0000.0001) %MON dynstat_salt_max             =   3.4700000000000E+01
(PID.TID 0000.0001) %MON dynstat_salt_min             =   3.4000000000000E+01
(PID.TID 0000.0001) %MON dynstat_salt_mean            =   3.4499082565209E+01
(PID.TID 0000.0001) %MON dynstat_salt_sd              =   2.7627805236104E-01
(PID.TID 0000.0001) %MON dynstat_salt_del2            =   1.2363510825978E-06
(PID.TID 0000.0001) %MON advcfl_uvel_max              =   2.8186487998047E-03
(PID.TID 0000.0001) %MON advcfl_vvel_max              =   2.1732076186750E-03
(PID.TID 0000.0001) %MON advcfl_wvel_max              =   5.5403351485514E-03
(PID.TID 0000.0001) %MON advcfl_W_hf_max              =   5.5403351485514E-03
(PID.TID 0000.0001) %MON pe_b_mean                    =  -8.3029186371944E-01
(PID.TID 0000.0001) %MON ke_max                       =   2.8876830413330E-04
(PID.TID 0000.0001) %MON ke_mean                      =   4.5006929306152E-07
(PID.TID 0000.0001) %MON ke_vol                       =   4.2724763750989E+12
(PID.TID 0000.0001) // =======================================================
(PID.TID 0000.0001) // End MONITOR dynamic field statistics
(PID.TID 0000.0001) // =======================================================
(PID.TID 0000.0001) // =======================================================
(PID.TID 0000.0001) // Begin OBCS MONITOR field statistics
(PID.TID 0000.0001) // =======================================================
(PID.TID 0000.0001) %MON obc_N_vVel_max               =   1.4792346227651E-05
(PID.TID 0000.0001) %MON obc_N_vVel_min               =   1.4792346227651E-05
(PID.TID 0000.0001) %MON obc_N_vVel_mean              =   1.4792346227651E-05
(PID.TID 0000.0001) %MON obc_N_vVel_sd                =  -3.1019272970739E-24
(PID.TID 0000.0001) %MON obc_N_vVel_Int               =   9.7629485102496E+02
(PID.TID 0000.0001) // =======================================================
(PID.TID 0000.0001) // End OBCS MONITOR field statistics
(PID.TID 0000.0001) // =======================================================
 cg2d: Sum(rhs),rhsMax =   4.51111880896912E+00  2.99940195357651E+02
(PID.TID 0000.0001)      cg2d_init_res =   7.37715688755348E-06
(PID.TID 0000.0001)      cg2d_iters(min,last) =      -1      82
(PID.TID 0000.0001)      cg2d_last_res =   9.57018234452326E-12
(PID.TID 0000.0001) // =======================================================
(PID.TID 0000.0001) // Begin MONITOR dynamic field statistics
(PID.TID 0000.0001) // =======================================================
(PID.TID 0000.0001) %MON time_tsnumber                =                  1129
(PID.TID 0000.0001) %MON time_secondsf                =   1.1290000000000E+05
(PID.TID 0000.0001) %MON dynstat_eta_max              =   5.7976020021780E+00
(PID.TID 0000.0001) %MON dynstat_eta_min              =  -1.4199246947024E+01
(PID.TID 0000.0001) %MON dynstat_eta_mean             =  -2.5056775126736E+00
(PID.TID 0000.0001) %MON dynstat_eta_sd               =   4.9505268312497E+00
(PID.TID 0000.0001) %MON dynstat_eta_del2             =   2.0715394706182E-01
(PID.TID 0000.0001) %MON dynstat_uvel_max             =   6.2675705260560E-03
(PID.TID 0000.0001) %MON dynstat_uvel_min             =  -2.8257755714207E-02
(PID.TID 0000.0001) %MON dynstat_uvel_mean            =  -1.1062755566736E-07
(PID.TID 0000.0001) %MON dynstat_uvel_sd              =   8.2506035724154E-04
(PID.TID 0000.0001) %MON dynstat_uvel_del2            =   1.2070686491995E-06
(PID.TID 0000.0001) %MON dynstat_vvel_max             =   2.1778969842895E-02
(PID.TID 0000.0001) %MON dynstat_vvel_min             =  -9.0675700091492E-03
(PID.TID 0000.0001) %MON dynstat_vvel_mean            =   1.4980938068234E-05
(PID.TID 0000.0001) %MON dynstat_vvel_sd              =   4.8663174834202E-04
(PID.TID 0000.0001) %MON dynstat_vvel_del2            =   9.7785653539809E-07
(PID.TID 0000.0001) %MON dynstat_wvel_max             =   1.1107459555003E-03
(PID.TID 0000.0001) %MON dynstat_wvel_min             =  -1.0733737358053E-03
(PID.TID 0000.0001) %MON dynstat_wvel_mean            =   6.5110236121255E-09
(PID.TID 0000.0001) %MON dynstat_wvel_sd              =   1.9808683108030E-05
(PID.TID 0000.0001) %MON dynstat_wvel_del2            =   8.2384524099127E-08
(PID.TID 0000.0001) %MON dynstat_theta_max            =   1.2000000000000E+00
(PID.TID 0000.0001) %MON dynstat_theta_min            =  -1.0000000000000E+00
(PID.TID 0000.0001) %MON dynstat_theta_mean           =   5.6867003967522E-01
(PID.TID 0000.0001) %MON dynstat_theta_sd             =   8.6834978013947E-01
(PID.TID 0000.0001) %MON dynstat_theta_del2           =   3.1377123027688E-06
(PID.TID 0000.0001) %MON dynstat_salt_max             =   3.4700000000000E+01
(PID.TID 0000.0001) %MON dynstat_salt_min             =   3.4000000000000E+01
(PID.TID 0000.0001) %MON dynstat_salt_mean            =   3.4499082181203E+01
(PID.TID 0000.0001) %MON dynstat_salt_sd              =   2.7627785280710E-01
(PID.TID 0000.0001) %MON dynstat_salt_del2            =   1.2389145882128E-06
(PID.TID 0000.0001) %MON advcfl_uvel_max              =   2.8257755714207E-03
(PID.TID 0000.0001) %MON advcfl_vvel_max              =   2.1778969842895E-03
(PID.TID 0000.0001) %MON advcfl_wvel_max              =   5.5537297775017E-03
(PID.TID 0000.0001) %MON advcfl_W_hf_max              =   5.5537297775017E-03
(PID.TID 0000.0001) %MON pe_b_mean                    =  -8.3029390719290E-01
(PID.TID 0000.0001) %MON ke_max                       =   2.9031496461958E-04
(PID.TID 0000.0001) %MON ke_mean                      =   4.5212540051949E-07
(PID.TID 0000.0001) %MON ke_vol                       =   4.2724763251559E+12
(PID.TID 0000.0001) // =======================================================
(PID.TID 0000.0001) // End MONITOR dynamic field statistics
(PID.TID 0000.0001) // =======================================================
(PID.TID 0000.0001) // =======================================================
(PID.TID 0000.0001) // Begin OBCS MONITOR field statistics
(PID.TID 0000.0001) // =======================================================
(PID.TID 0000.0001) %MON obc_N_vVel_max               =   1.4750397815036E-05
(PID.TID 0000.0001) %MON obc_N_vVel_min               =   1.4750397815036E-05
(PID.TID 0000.0001) %MON obc_N_vVel_mean              =   1.4750397815036E-05
(PID.TID 0000.0001) %MON obc_N_vVel_sd                =   3.3416969146627E-12
(PID.TID 0000.0001) %MON obc_N_vVel_Int               =   9.7352625579237E+02
(PID.TID 0000.0001) // =======================================================
(PID.TID 0000.0001) // End OBCS MONITOR field statistics
(PID.TID 0000.0001) // =======================================================
 cg2d: Sum(rhs),rhsMax =   4.51113259140817E+00  2.99940271059071E+02
(PID.TID 0000.0001)      cg2d_init_res =   7.36530513731444E-06
(PID.TID 0000.0001)      cg2d_iters(min,last) =      -1      82
(PID.TID 0000.0001)      cg2d_last_res =   9.58649386216489E-12
(PID.TID 0000.0001) // =======================================================
(PID.TID 0000.0001) // Begin MONITOR dynamic field statistics
(PID.TID 0000.0001) // =======================================================
(PID.TID 0000.0001) %MON time_tsnumber                =                  1130
(PID.TID 0000.0001) %MON time_secondsf                =   1.1300000000000E+05
(PID.TID 0000.0001) %MON dynstat_eta_max              =   5.7975824025716E+00
(PID.TID 0000.0001) %MON dynstat_eta_min              =  -1.4199261356315E+01
(PID.TID 0000.0001) %MON dynstat_eta_mean             =  -2.5056858004637E+00
(PID.TID 0000.0001) %MON dynstat_eta_sd               =   4.9505298720296E+00
(PID.TID 0000.0001) %MON dynstat_eta_del2             =   2.0715398097434E-01
(PID.TID 0000.0001) %MON dynstat_uvel_max             =   6.2825138611231E-03
(PID.TID 0000.0001) %MON dynstat_uvel_min             =  -2.8329142032782E-02
(PID.TID 0000.0001) %MON dynstat_uvel_mean            =  -1.1075014112512E-07
(PID.TID 0000.0001) %MON dynstat_uvel_sd              =   8.2703662818826E-04
(PID.TID 0000.0001) %MON dynstat_uvel_del2            =   1.2099387445504E-06
(PID.TID 0000.0001) %MON dynstat_vvel_max             =   2.1825905426021E-02
(PID.TID 0000.0001) %MON dynstat_vvel_min             =  -9.0915749514089E-03
(PID.TID 0000.0001) %MON dynstat_vvel_mean            =   1.4937359256225E-05
(PID.TID 0000.0001) %MON dynstat_vvel_sd              =   4.8758395190684E-04
(PID.TID 0000.0001) %MON dynstat_vvel_del2            =   9.7989024695514E-07
(PID.TID 0000.0001) %MON dynstat_wvel_max             =   1.1134283387099E-03
(PID.TID 0000.0001) %MON dynstat_wvel_min             =  -1.0759057043941E-03
(PID.TID 0000.0001) %MON dynstat_wvel_mean            =   6.4802414014255E-09
(PID.TID 0000.0001) %MON dynstat_wvel_sd              =   1.9871611580480E-05
(PID.TID 0000.0001) %MON dynstat_wvel_del2            =   8.2605240123043E-08
(PID.TID 0000.0001) %MON dynstat_theta_max            =   1.2000000000000E+00
(PID.TID 0000.0001) %MON dynstat_theta_min            =  -1.0000000000000E+00
(PID.TID 0000.0001) %MON dynstat_theta_mean           =   5.6866907834407E-01
(PID.TID 0000.0001) %MON dynstat_theta_sd             =   8.6834926086041E-01
(PID.TID 0000.0001) %MON dynstat_theta_del2           =   3.1441235096581E-06
(PID.TID 0000.0001) %MON dynstat_salt_max             =   3.4700000000000E+01
(PID.TID 0000.0001) %MON dynstat_salt_min             =   3.4000000000000E+01
(PID.TID 0000.0001) %MON dynstat_salt_mean            =   3.4499081796508E+01
(PID.TID 0000.0001) %MON dynstat_salt_sd              =   2.7627765289346E-01
(PID.TID 0000.0001) %MON dynstat_salt_del2            =   1.2414900491617E-06
(PID.TID 0000.0001) %MON advcfl_uvel_max              =   2.8329142032782E-03
(PID.TID 0000.0001) %MON advcfl_vvel_max              =   2.1825905426021E-03
(PID.TID 0000.0001) %MON advcfl_wvel_max              =   5.5671416935496E-03
(PID.TID 0000.0001) %MON advcfl_W_hf_max              =   5.5671416935496E-03
(PID.TID 0000.0001) %MON pe_b_mean                    =  -8.3029593465597E-01
(PID.TID 0000.0001) %MON ke_max                       =   2.9186874618705E-04
(PID.TID 0000.0001) %MON ke_mean                      =   4.5418869188275E-07
(PID.TID 0000.0001) %MON ke_vol                       =   4.2724762755747E+12
(PID.TID 0000.0001) // =======================================================
(PID.TID 0000.0001) // End MONITOR dynamic field statistics
(PID.TID 0000.0001) // =======================================================
(PID.TID 0000.0001) // =======================================================
(PID.TID 0000.0001) // Begin OBCS MONITOR field statistics
(PID.TID 0000.0001) // =======================================================
(PID.TID 0000.0001) %MON obc_N_vVel_max               =   1.4710025805981E-05
(PID.TID 0000.0001) %MON obc_N_vVel_min               =   1.4710025805980E-05
(PID.TID 0000.0001) %MON obc_N_vVel_mean              =   1.4710025805980E-05
(PID.TID 0000.0001) %MON obc_N_vVel_sd                =   3.8519543400292E-12
(PID.TID 0000.0001) %MON obc_N_vVel_Int               =   9.7086170319469E+02
(PID.TID 0000.0001) // =======================================================
(PID.TID 0000.0001) // End OBCS MONITOR field statistics
(PID.TID 0000.0001) // =======================================================
 cg2d: Sum(rhs),rhsMax =   4.51114628587743E+00  2.99940345798948E+02
(PID.TID 0000.0001)      cg2d_init_res =   7.35589141916161E-06
(PID.TID 0000.0001)      cg2d_iters(min,last) =      -1      82
(PID.TID 0000.0001)      cg2d_last_res =   9.60453924720546E-12
(PID.TID 0000.0001) // =======================================================
(PID.TID 0000.0001) // Begin MONITOR dynamic field statistics
(PID.TID 0000.0001) // =======================================================
(PID.TID 0000.0001) %MON time_tsnumber                =                  1131
(PID.TID 0000.0001) %MON time_secondsf                =   1.1310000000000E+05
(PID.TID 0000.0001) %MON dynstat_eta_max              =   5.7975628973239E+00
(PID.TID 0000.0001) %MON dynstat_eta_min              =  -1.4199275677076E+01
(PID.TID 0000.0001) %MON dynstat_eta_mean             =  -2.5056940313624E+00
(PID.TID 0000.0001) %MON dynstat_eta_sd               =   4.9505328970989E+00
(PID.TID 0000.0001) %MON dynstat_eta_del2             =   2.0715401493533E-01
(PID.TID 0000.0001) %MON dynstat_uvel_max             =   6.2974845232127E-03
(PID.TID 0000.0001) %MON dynstat_uvel_min             =  -2.8400647074885E-02
(PID.TID 0000.0001) %MON dynstat_uvel_mean            =  -1.1089292482360E-07
(PID.TID 0000.0001) %MON dynstat_uvel_sd              =   8.2901675054371E-04
(PID.TID 0000.0001) %MON dynstat_uvel_del2            =   1.2128162558955E-06
(PID.TID 0000.0001) %MON dynstat_vvel_max             =   2.1872882862587E-02
(PID.TID 0000.0001) %MON dynstat_vvel_min             =  -9.1156363474099E-03
(PID.TID 0000.0001) %MON dynstat_vvel_mean            =   1.4896513927278E-05
(PID.TID 0000.0001) %MON dynstat_vvel_sd              =   4.8853440247749E-04
(PID.TID 0000.0001) %MON dynstat_vvel_del2            =   9.8191297824035E-07
(PID.TID 0000.0001) %MON dynstat_wvel_max             =   1.1161141727110E-03
(PID.TID 0000.0001) %MON dynstat_wvel_min             =  -1.0784411235129E-03
(PID.TID 0000.0001) %MON dynstat_wvel_mean            =   6.4568448887411E-09
(PID.TID 0000.0001) %MON dynstat_wvel_sd              =   1.9918605867239E-05
(PID.TID 0000.0001) %MON dynstat_wvel_del2            =   8.2786982974213E-08
(PID.TID 0000.0001) %MON dynstat_theta_max            =   1.2000000000000E+00
(PID.TID 0000.0001) %MON dynstat_theta_min            =  -1.0000000000000E+00
(PID.TID 0000.0001) %MON dynstat_theta_mean           =   5.6866811529030E-01
(PID.TID 0000.0001) %MON dynstat_theta_sd             =   8.6834874065083E-01
(PID.TID 0000.0001) %MON dynstat_theta_del2           =   3.1505725015735E-06
(PID.TID 0000.0001) %MON dynstat_salt_max             =   3.4700000000000E+01
(PID.TID 0000.0001) %MON dynstat_salt_min             =   3.4000000000000E+01
(PID.TID 0000.0001) %MON dynstat_salt_mean            =   3.4499081411124E+01
(PID.TID 0000.0001) %MON dynstat_salt_sd              =   2.7627745262139E-01
(PID.TID 0000.0001) %MON dynstat_salt_del2            =   1.2440776879318E-06
(PID.TID 0000.0001) %MON advcfl_uvel_max              =   2.8400647074885E-03
(PID.TID 0000.0001) %MON advcfl_vvel_max              =   2.1872882862587E-03
(PID.TID 0000.0001) %MON advcfl_wvel_max              =   5.5805708635548E-03
(PID.TID 0000.0001) %MON advcfl_W_hf_max              =   5.5805708635548E-03
(PID.TID 0000.0001) %MON pe_b_mean                    =  -8.3029794683753E-01
(PID.TID 0000.0001) %MON ke_max                       =   2.9342967668082E-04
(PID.TID 0000.0001) %MON ke_mean                      =   4.5625903378711E-07
(PID.TID 0000.0001) %MON ke_vol                       =   4.2724762263452E+12
(PID.TID 0000.0001) // =======================================================
(PID.TID 0000.0001) // End MONITOR dynamic field statistics
(PID.TID 0000.0001) // =======================================================
(PID.TID 0000.0001) // =======================================================
(PID.TID 0000.0001) // Begin OBCS MONITOR field statistics
(PID.TID 0000.0001) // =======================================================
(PID.TID 0000.0001) %MON obc_N_vVel_max               =   1.4671751906206E-05
(PID.TID 0000.0001) %MON obc_N_vVel_min               =   1.4671751906206E-05
(PID.TID 0000.0001) %MON obc_N_vVel_mean              =   1.4671751906206E-05
(PID.TID 0000.0001) %MON obc_N_vVel_sd                =  -1.0908444328043E-23
(PID.TID 0000.0001) %MON obc_N_vVel_Int               =   9.6833562580963E+02
(PID.TID 0000.0001) // =======================================================
(PID.TID 0000.0001) // End OBCS MONITOR field statistics
(PID.TID 0000.0001) // =======================================================
 cg2d: Sum(rhs),rhsMax =   4.51115989650564E+00  2.99940419644866E+02
(PID.TID 0000.0001)      cg2d_init_res =   7.34908040090649E-06
(PID.TID 0000.0001)      cg2d_iters(min,last) =      -1      82
(PID.TID 0000.0001)      cg2d_last_res =   9.62415619644587E-12
(PID.TID 0000.0001) // =======================================================
(PID.TID 0000.0001) // Begin MONITOR dynamic field statistics
(PID.TID 0000.0001) // =======================================================
(PID.TID 0000.0001) %MON time_tsnumber                =                  1132
(PID.TID 0000.0001) %MON time_secondsf                =   1.1320000000000E+05
(PID.TID 0000.0001) %MON dynstat_eta_max              =   5.7975434803452E+00
(PID.TID 0000.0001) %MON dynstat_eta_min              =  -1.4199289915272E+01
(PID.TID 0000.0001) %MON dynstat_eta_mean             =  -2.5057022082278E+00
(PID.TID 0000.0001) %MON dynstat_eta_sd               =   4.9505359078237E+00
(PID.TID 0000.0001) %MON dynstat_eta_del2             =   2.0715404894616E-01
(PID.TID 0000.0001) %MON dynstat_uvel_max             =   6.3124825149359E-03
(PID.TID 0000.0001) %MON dynstat_uvel_min             =  -2.8472270958269E-02
(PID.TID 0000.0001) %MON dynstat_uvel_mean            =  -1.1105209457129E-07
(PID.TID 0000.0001) %MON dynstat_uvel_sd              =   8.3100073416236E-04
(PID.TID 0000.0001) %MON dynstat_uvel_del2            =   1.2157012050896E-06
(PID.TID 0000.0001) %MON dynstat_vvel_max             =   2.1919902071900E-02
(PID.TID 0000.0001) %MON dynstat_vvel_min             =  -9.1397542010494E-03
(PID.TID 0000.0001) %MON dynstat_vvel_mean            =   1.4858926037138E-05
(PID.TID 0000.0001) %MON dynstat_vvel_sd              =   4.8948294569350E-04
(PID.TID 0000.0001) %MON dynstat_vvel_del2            =   9.8392466639249E-07
(PID.TID 0000.0001) %MON dynstat_wvel_max             =   1.1188034507862E-03
(PID.TID 0000.0001) %MON dynstat_wvel_min             =  -1.0809799935475E-03
(PID.TID 0000.0001) %MON dynstat_wvel_mean            =   6.4411152044295E-09
(PID.TID 0000.0001) %MON dynstat_wvel_sd              =   1.9949011089780E-05
(PID.TID 0000.0001) %MON dynstat_wvel_del2            =   8.2925828421879E-08
(PID.TID 0000.0001) %MON dynstat_theta_max            =   1.2000000000000E+00
(PID.TID 0000.0001) %MON dynstat_theta_min            =  -1.0000000000000E+00
(PID.TID 0000.0001) %MON dynstat_theta_mean           =   5.6866715051246E-01
(PID.TID 0000.0001) %MON dynstat_theta_sd             =   8.6834821951285E-01
(PID.TID 0000.0001) %MON dynstat_theta_del2           =   3.1570601752373E-06
(PID.TID 0000.0001) %MON dynstat_salt_max             =   3.4700000000000E+01
(PID.TID 0000.0001) %MON dynstat_salt_min             =   3.4000000000000E+01
(PID.TID 0000.0001) %MON dynstat_salt_mean            =   3.4499081025050E+01
(PID.TID 0000.0001) %MON dynstat_salt_sd              =   2.7627725199182E-01
(PID.TID 0000.0001) %MON dynstat_salt_del2            =   1.2466769121329E-06
(PID.TID 0000.0001) %MON advcfl_uvel_max              =   2.8472270958269E-03
(PID.TID 0000.0001) %MON advcfl_vvel_max              =   2.1919902071900E-03
(PID.TID 0000.0001) %MON advcfl_wvel_max              =   5.5940172539308E-03
(PID.TID 0000.0001) %MON advcfl_W_hf_max              =   5.5940172539308E-03
(PID.TID 0000.0001) %MON pe_b_mean                    =  -8.3029994459693E-01
(PID.TID 0000.0001) %MON ke_max                       =   2.9499778397294E-04
(PID.TID 0000.0001) %MON ke_mean                      =   4.5833638353212E-07
(PID.TID 0000.0001) %MON ke_vol                       =   4.2724761774537E+12
(PID.TID 0000.0001) // =======================================================
(PID.TID 0000.0001) // End MONITOR dynamic field statistics
(PID.TID 0000.0001) // =======================================================
(PID.TID 0000.0001) // =======================================================
(PID.TID 0000.0001) // Begin OBCS MONITOR field statistics
(PID.TID 0000.0001) // =======================================================
(PID.TID 0000.0001) %MON obc_N_vVel_max               =   1.4636067673098E-05
(PID.TID 0000.0001) %MON obc_N_vVel_min               =   1.4636067673098E-05
(PID.TID 0000.0001) %MON obc_N_vVel_mean              =   1.4636067673098E-05
(PID.TID 0000.0001) %MON obc_N_vVel_sd                =  -1.5716431638508E-23
(PID.TID 0000.0001) %MON obc_N_vVel_Int               =   9.6598046642445E+02
(PID.TID 0000.0001) // =======================================================
(PID.TID 0000.0001) // End OBCS MONITOR field statistics
(PID.TID 0000.0001) // =======================================================
 cg2d: Sum(rhs),rhsMax =   4.51117342820936E+00  2.99940492672475E+02
(PID.TID 0000.0001)      cg2d_init_res =   7.34504236239407E-06
(PID.TID 0000.0001)      cg2d_iters(min,last) =      -1      82
(PID.TID 0000.0001)      cg2d_last_res =   9.64508319701987E-12
(PID.TID 0000.0001) // =======================================================
(PID.TID 0000.0001) // Begin MONITOR dynamic field statistics
(PID.TID 0000.0001) // =======================================================
(PID.TID 0000.0001) %MON time_tsnumber                =                  1133
(PID.TID 0000.0001) %MON time_secondsf                =   1.1330000000000E+05
(PID.TID 0000.0001) %MON dynstat_eta_max              =   5.7975241443375E+00
(PID.TID 0000.0001) %MON dynstat_eta_min              =  -1.4199304077654E+01
(PID.TID 0000.0001) %MON dynstat_eta_mean             =  -2.5057103344224E+00
(PID.TID 0000.0001) %MON dynstat_eta_sd               =   4.9505389057113E+00
(PID.TID 0000.0001) %MON dynstat_eta_del2             =   2.0715408300943E-01
(PID.TID 0000.0001) %MON dynstat_uvel_max             =   6.3275078428191E-03
(PID.TID 0000.0001) %MON dynstat_uvel_min             =  -2.8544013799482E-02
(PID.TID 0000.0001) %MON dynstat_uvel_mean            =  -1.1122470779767E-07
(PID.TID 0000.0001) %MON dynstat_uvel_sd              =   8.3298858815686E-04
(PID.TID 0000.0001) %MON dynstat_uvel_del2            =   1.2185936120016E-06
(PID.TID 0000.0001) %MON dynstat_vvel_max             =   2.1966962964902E-02
(PID.TID 0000.0001) %MON dynstat_vvel_min             =  -9.1639285274425E-03
(PID.TID 0000.0001) %MON dynstat_vvel_mean            =   1.4825073635300E-05
(PID.TID 0000.0001) %MON dynstat_vvel_sd              =   4.9042962078214E-04
(PID.TID 0000.0001) %MON dynstat_vvel_del2            =   9.8592608209228E-07
(PID.TID 0000.0001) %MON dynstat_wvel_max             =   1.1214961661649E-03
(PID.TID 0000.0001) %MON dynstat_wvel_min             =  -1.0835223141675E-03
(PID.TID 0000.0001) %MON dynstat_wvel_mean            =   6.4332262648754E-09
(PID.TID 0000.0001) %MON dynstat_wvel_sd              =   1.9963016663209E-05
(PID.TID 0000.0001) %MON dynstat_wvel_del2            =   8.3019929470722E-08
(PID.TID 0000.0001) %MON dynstat_theta_max            =   1.2000000000000E+00
(PID.TID 0000.0001) %MON dynstat_theta_min            =  -1.0000000000000E+00
(PID.TID 0000.0001) %MON dynstat_theta_mean           =   5.6866618400917E-01
(PID.TID 0000.0001) %MON dynstat_theta_sd             =   8.6834769744766E-01
(PID.TID 0000.0001) %MON dynstat_theta_del2           =   3.1635859782677E-06
(PID.TID 0000.0001) %MON dynstat_salt_max             =   3.4700000000000E+01
(PID.TID 0000.0001) %MON dynstat_salt_min             =   3.4000000000000E+01
(PID.TID 0000.0001) %MON dynstat_salt_mean            =   3.4499080638284E+01
(PID.TID 0000.0001) %MON dynstat_salt_sd              =   2.7627705100486E-01
(PID.TID 0000.0001) %MON dynstat_salt_del2            =   1.2492879277699E-06
(PID.TID 0000.0001) %MON advcfl_uvel_max              =   2.8544013799482E-03
(PID.TID 0000.0001) %MON advcfl_vvel_max              =   2.1966962964902E-03
(PID.TID 0000.0001) %MON advcfl_wvel_max              =   5.6074808308246E-03
(PID.TID 0000.0001) %MON advcfl_W_hf_max              =   5.6074808308246E-03
(PID.TID 0000.0001) %MON pe_b_mean                    =  -8.3030192891169E-01
(PID.TID 0000.0001) %MON ke_max                       =   2.9657309600846E-04
(PID.TID 0000.0001) %MON ke_mean                      =   4.6042079156367E-07
(PID.TID 0000.0001) %MON ke_vol                       =   4.2724761288831E+12
(PID.TID 0000.0001) // =======================================================
(PID.TID 0000.0001) // End MONITOR dynamic field statistics
(PID.TID 0000.0001) // =======================================================
(PID.TID 0000.0001) // =======================================================
(PID.TID 0000.0001) // Begin OBCS MONITOR field statistics
(PID.TID 0000.0001) // =======================================================
(PID.TID 0000.0001) %MON obc_N_vVel_max               =   1.4603427874150E-05
(PID.TID 0000.0001) %MON obc_N_vVel_min               =   1.4603427874150E-05
(PID.TID 0000.0001) %MON obc_N_vVel_mean              =   1.4603427874150E-05
(PID.TID 0000.0001) %MON obc_N_vVel_sd                =   3.7944844889986E-12
(PID.TID 0000.0001) %MON obc_N_vVel_Int               =   9.6382623969391E+02
(PID.TID 0000.0001) // =======================================================
(PID.TID 0000.0001) // End OBCS MONITOR field statistics
(PID.TID 0000.0001) // =======================================================
 cg2d: Sum(rhs),rhsMax =   4.51118688660175E+00  2.99940564965803E+02
(PID.TID 0000.0001)      cg2d_init_res =   7.34384394625045E-06
(PID.TID 0000.0001)      cg2d_iters(min,last) =      -1      82
(PID.TID 0000.0001)      cg2d_last_res =   9.66731349493348E-12
(PID.TID 0000.0001) // =======================================================
(PID.TID 0000.0001) // Begin MONITOR dynamic field statistics
(PID.TID 0000.0001) // =======================================================
(PID.TID 0000.0001) %MON time_tsnumber                =                  1134
(PID.TID 0000.0001) %MON time_secondsf                =   1.1340000000000E+05
(PID.TID 0000.0001) %MON dynstat_eta_max              =   5.7975048818795E+00
(PID.TID 0000.0001) %MON dynstat_eta_min              =  -1.4199318171676E+01
(PID.TID 0000.0001) %MON dynstat_eta_mean             =  -2.5057184137660E+00
(PID.TID 0000.0001) %MON dynstat_eta_sd               =   4.9505418923540E+00
(PID.TID 0000.0001) %MON dynstat_eta_del2             =   2.0715411712608E-01
(PID.TID 0000.0001) %MON dynstat_uvel_max             =   6.3425605189202E-03
(PID.TID 0000.0001) %MON dynstat_uvel_min             =  -2.8615875707216E-02
(PID.TID 0000.0001) %MON dynstat_uvel_mean            =  -1.1140870358151E-07
(PID.TID 0000.0001) %MON dynstat_uvel_sd              =   8.3498032194026E-04
(PID.TID 0000.0001) %MON dynstat_uvel_del2            =   1.2214934920314E-06
(PID.TID 0000.0001) %MON dynstat_vvel_max             =   2.2014065442704E-02
(PID.TID 0000.0001) %MON dynstat_vvel_min             =  -9.1881593535685E-03
(PID.TID 0000.0001) %MON dynstat_vvel_mean            =   1.4795382428971E-05
(PID.TID 0000.0001) %MON dynstat_vvel_sd              =   4.9137465515945E-04
(PID.TID 0000.0001) %MON dynstat_vvel_del2            =   9.8791879405668E-07
(PID.TID 0000.0001) %MON dynstat_wvel_max             =   1.1241923120019E-03
(PID.TID 0000.0001) %MON dynstat_wvel_min             =  -1.0860680845515E-03
(PID.TID 0000.0001) %MON dynstat_wvel_mean            =   6.4332478168449E-09
(PID.TID 0000.0001) %MON dynstat_wvel_sd              =   1.9961634149914E-05
(PID.TID 0000.0001) %MON dynstat_wvel_del2            =   8.3069603561285E-08
(PID.TID 0000.0001) %MON dynstat_theta_max            =   1.2000000000000E+00
(PID.TID 0000.0001) %MON dynstat_theta_min            =  -1.0000000000000E+00
(PID.TID 0000.0001) %MON dynstat_theta_mean           =   5.6866521577908E-01
(PID.TID 0000.0001) %MON dynstat_theta_sd             =   8.6834717445741E-01
(PID.TID 0000.0001) %MON dynstat_theta_del2           =   3.1701479222245E-06
(PID.TID 0000.0001) %MON dynstat_salt_max             =   3.4700000000000E+01
(PID.TID 0000.0001) %MON dynstat_salt_min             =   3.4000000000000E+01
(PID.TID 0000.0001) %MON dynstat_salt_mean            =   3.4499080250828E+01
(PID.TID 0000.0001) %MON dynstat_salt_sd              =   2.7627684966115E-01
(PID.TID 0000.0001) %MON dynstat_salt_del2            =   1.2519101040824E-06
(PID.TID 0000.0001) %MON advcfl_uvel_max              =   2.8615875707216E-03
(PID.TID 0000.0001) %MON advcfl_vvel_max              =   2.2014065442704E-03
(PID.TID 0000.0001) %MON advcfl_wvel_max              =   5.6209615600096E-03
(PID.TID 0000.0001) %MON advcfl_W_hf_max              =   5.6209615600096E-03
(PID.TID 0000.0001) %MON pe_b_mean                    =  -8.3030390086376E-01
(PID.TID 0000.0001) %MON ke_max                       =   2.9815564067066E-04
(PID.TID 0000.0001) %MON ke_mean                      =   4.6251240051560E-07
(PID.TID 0000.0001) %MON ke_vol                       =   4.2724760806135E+12
(PID.TID 0000.0001) // =======================================================
(PID.TID 0000.0001) // End MONITOR dynamic field statistics
(PID.TID 0000.0001) // =======================================================
(PID.TID 0000.0001) // =======================================================
(PID.TID 0000.0001) // Begin OBCS MONITOR field statistics
(PID.TID 0000.0001) // =======================================================
(PID.TID 0000.0001) %MON obc_N_vVel_max               =   1.4574244304058E-05
(PID.TID 0000.0001) %MON obc_N_vVel_min               =   1.4574244304058E-05
(PID.TID 0000.0001) %MON obc_N_vVel_mean              =   1.4574244304058E-05
(PID.TID 0000.0001) %MON obc_N_vVel_sd                =   2.4170153239390E-12
(PID.TID 0000.0001) %MON obc_N_vVel_Int               =   9.6190012406784E+02
(PID.TID 0000.0001) // =======================================================
(PID.TID 0000.0001) // End OBCS MONITOR field statistics
(PID.TID 0000.0001) // =======================================================
 cg2d: Sum(rhs),rhsMax =   4.51120027792835E+00  2.99940636615060E+02
(PID.TID 0000.0001)      cg2d_init_res =   7.34559916695432E-06
(PID.TID 0000.0001)      cg2d_iters(min,last) =      -1      82
(PID.TID 0000.0001)      cg2d_last_res =   9.69062811156659E-12
(PID.TID 0000.0001) // =======================================================
(PID.TID 0000.0001) // Begin MONITOR dynamic field statistics
(PID.TID 0000.0001) // =======================================================
(PID.TID 0000.0001) %MON time_tsnumber                =                  1135
(PID.TID 0000.0001) %MON time_secondsf                =   1.1350000000000E+05
(PID.TID 0000.0001) %MON dynstat_eta_max              =   5.7974856845625E+00
(PID.TID 0000.0001) %MON dynstat_eta_min              =  -1.4199332205420E+01
(PID.TID 0000.0001) %MON dynstat_eta_mean             =  -2.5057264504812E+00
(PID.TID 0000.0001) %MON dynstat_eta_sd               =   4.9505448694382E+00
(PID.TID 0000.0001) %MON dynstat_eta_del2             =   2.0715415129791E-01
(PID.TID 0000.0001) %MON dynstat_uvel_max             =   6.3576405605197E-03
(PID.TID 0000.0001) %MON dynstat_uvel_min             =  -2.8687856788232E-02
(PID.TID 0000.0001) %MON dynstat_uvel_mean            =  -1.1160273310032E-07
(PID.TID 0000.0001) %MON dynstat_uvel_sd              =   8.3697594470231E-04
(PID.TID 0000.0001) %MON dynstat_uvel_del2            =   1.2244008581414E-06
(PID.TID 0000.0001) %MON dynstat_vvel_max             =   2.2061209394049E-02
(PID.TID 0000.0001) %MON dynstat_vvel_min             =  -9.2124467198271E-03
(PID.TID 0000.0001) %MON dynstat_vvel_mean            =   1.4770220019923E-05
(PID.TID 0000.0001) %MON dynstat_vvel_sd              =   4.9231844908830E-04
(PID.TID 0000.0001) %MON dynstat_vvel_del2            =   9.8990508545916E-07
(PID.TID 0000.0001) %MON dynstat_wvel_max             =   1.1268918814024E-03
(PID.TID 0000.0001) %MON dynstat_wvel_min             =  -1.0886173031864E-03
(PID.TID 0000.0001) %MON dynstat_wvel_mean            =   6.4411396770634E-09
(PID.TID 0000.0001) %MON dynstat_wvel_sd              =   1.9946641622163E-05
(PID.TID 0000.0001) %MON dynstat_wvel_del2            =   8.3077355252020E-08
(PID.TID 0000.0001) %MON dynstat_theta_max            =   1.2000000000000E+00
(PID.TID 0000.0001) %MON dynstat_theta_min            =  -1.0000000000000E+00
(PID.TID 0000.0001) %MON dynstat_theta_mean           =   5.6866424582086E-01
(PID.TID 0000.0001) %MON dynstat_theta_sd             =   8.6834665054463E-01
(PID.TID 0000.0001) %MON dynstat_theta_del2           =   3.1767429294499E-06
(PID.TID 0000.0001) %MON dynstat_salt_max             =   3.4700000000000E+01
(PID.TID 0000.0001) %MON dynstat_salt_min             =   3.4000000000000E+01
(PID.TID 0000.0001) %MON dynstat_salt_mean            =   3.4499079862679E+01
(PID.TID 0000.0001) %MON dynstat_salt_sd              =   2.7627664796129E-01
(PID.TID 0000.0001) %MON dynstat_salt_del2            =   1.2545425373137E-06
(PID.TID 0000.0001) %MON advcfl_uvel_max              =   2.8687856788232E-03
(PID.TID 0000.0001) %MON advcfl_vvel_max              =   2.2061209394049E-03
(PID.TID 0000.0001) %MON advcfl_wvel_max              =   5.6344594070122E-03
(PID.TID 0000.0001) %MON advcfl_W_hf_max              =   5.6344594070122E-03
(PID.TID 0000.0001) %MON pe_b_mean                    =  -8.3030586162427E-01
(PID.TID 0000.0001) %MON ke_max                       =   2.9974544590380E-04
(PID.TID 0000.0001) %MON ke_mean                      =   4.6461143805808E-07
(PID.TID 0000.0001) %MON ke_vol                       =   4.2724760326222E+12
(PID.TID 0000.0001) // =======================================================
(PID.TID 0000.0001) // End MONITOR dynamic field statistics
(PID.TID 0000.0001) // =======================================================
(PID.TID 0000.0001) // =======================================================
(PID.TID 0000.0001) // Begin OBCS MONITOR field statistics
(PID.TID 0000.0001) // =======================================================
(PID.TID 0000.0001) %MON obc_N_vVel_max               =   1.4548880239188E-05
(PID.TID 0000.0001) %MON obc_N_vVel_min               =   1.4548880239187E-05
(PID.TID 0000.0001) %MON obc_N_vVel_mean              =   1.4548880239187E-05
(PID.TID 0000.0001) %MON obc_N_vVel_sd                =   2.0526692975713E-12
(PID.TID 0000.0001) %MON obc_N_vVel_Int               =   9.6022609578636E+02
(PID.TID 0000.0001) // =======================================================
(PID.TID 0000.0001) // End OBCS MONITOR field statistics
(PID.TID 0000.0001) // =======================================================
 cg2d: Sum(rhs),rhsMax =   4.51121360897356E+00  2.99940707715906E+02
(PID.TID 0000.0001)      cg2d_init_res =   7.35037603997644E-06
(PID.TID 0000.0001)      cg2d_iters(min,last) =      -1      82
(PID.TID 0000.0001)      cg2d_last_res =   9.71482960191172E-12
(PID.TID 0000.0001) // =======================================================
(PID.TID 0000.0001) // Begin MONITOR dynamic field statistics
(PID.TID 0000.0001) // =======================================================
(PID.TID 0000.0001) %MON time_tsnumber                =                  1136
(PID.TID 0000.0001) %MON time_secondsf                =   1.1360000000000E+05
(PID.TID 0000.0001) %MON dynstat_eta_max              =   5.7974665434569E+00
(PID.TID 0000.0001) %MON dynstat_eta_min              =  -1.4199346187451E+01
(PID.TID 0000.0001) %MON dynstat_eta_mean             =  -2.5057344491355E+00
(PID.TID 0000.0001) %MON dynstat_eta_sd               =   4.9505478387090E+00
(PID.TID 0000.0001) %MON dynstat_eta_del2             =   2.0715418552665E-01
(PID.TID 0000.0001) %MON dynstat_uvel_max             =   6.3727479899818E-03
(PID.TID 0000.0001) %MON dynstat_uvel_min             =  -2.8759957146169E-02
(PID.TID 0000.0001) %MON dynstat_uvel_mean            =  -1.1180591231384E-07
(PID.TID 0000.0001) %MON dynstat_uvel_sd              =   8.3897546537716E-04
(PID.TID 0000.0001) %MON dynstat_uvel_del2            =   1.2273157209570E-06
(PID.TID 0000.0001) %MON dynstat_vvel_max             =   2.2108394696664E-02
(PID.TID 0000.0001) %MON dynstat_vvel_min             =  -9.2367906807063E-03
(PID.TID 0000.0001) %MON dynstat_vvel_mean            =   1.4749890980857E-05
(PID.TID 0000.0001) %MON dynstat_vvel_sd              =   4.9326155151936E-04
(PID.TID 0000.0001) %MON dynstat_vvel_del2            =   9.9188784324107E-07
(PID.TID 0000.0001) %MON dynstat_wvel_max             =   1.1295948674461E-03
(PID.TID 0000.0001) %MON dynstat_wvel_min             =  -1.0911699637636E-03
(PID.TID 0000.0001) %MON dynstat_wvel_mean            =   6.4567549337859E-09
(PID.TID 0000.0001) %MON dynstat_wvel_sd              =   1.9920496456761E-05
(PID.TID 0000.0001) %MON dynstat_wvel_del2            =   8.3047839193834E-08
(PID.TID 0000.0001) %MON dynstat_theta_max            =   1.2000000000000E+00
(PID.TID 0000.0001) %MON dynstat_theta_min            =  -1.0000000000000E+00
(PID.TID 0000.0001) %MON dynstat_theta_mean           =   5.6866327413331E-01
(PID.TID 0000.0001) %MON dynstat_theta_sd             =   8.6834612571131E-01
(PID.TID 0000.0001) %MON dynstat_theta_del2           =   3.1833670256908E-06
(PID.TID 0000.0001) %MON dynstat_salt_max             =   3.4700000000000E+01
(PID.TID 0000.0001) %MON dynstat_salt_min             =   3.4000000000000E+01
(PID.TID 0000.0001) %MON dynstat_salt_mean            =   3.4499079473839E+01
(PID.TID 0000.0001) %MON dynstat_salt_sd              =   2.7627644590609E-01
(PID.TID 0000.0001) %MON dynstat_salt_del2            =   1.2571841016222E-06
(PID.TID 0000.0001) %MON advcfl_uvel_max              =   2.8759957146169E-03
(PID.TID 0000.0001) %MON advcfl_vvel_max              =   2.2108394696664E-03
(PID.TID 0000.0001) %MON advcfl_wvel_max              =   5.6479743372304E-03
(PID.TID 0000.0001) %MON advcfl_W_hf_max              =   5.6479743372304E-03
(PID.TID 0000.0001) %MON pe_b_mean                    =  -8.3030781243725E-01
(PID.TID 0000.0001) %MON ke_max                       =   3.0134253969420E-04
(PID.TID 0000.0001) %MON ke_mean                      =   4.6671820571737E-07
(PID.TID 0000.0001) %MON ke_vol                       =   4.2724759848841E+12
(PID.TID 0000.0001) // =======================================================
(PID.TID 0000.0001) // End MONITOR dynamic field statistics
(PID.TID 0000.0001) // =======================================================
(PID.TID 0000.0001) // =======================================================
(PID.TID 0000.0001) // Begin OBCS MONITOR field statistics
(PID.TID 0000.0001) // =======================================================
(PID.TID 0000.0001) %MON obc_N_vVel_max               =   1.4527645624171E-05
(PID.TID 0000.0001) %MON obc_N_vVel_min               =   1.4527645624171E-05
(PID.TID 0000.0001) %MON obc_N_vVel_mean              =   1.4527645624171E-05
(PID.TID 0000.0001) %MON obc_N_vVel_sd                =   2.8895249277272E-12
(PID.TID 0000.0001) %MON obc_N_vVel_Int               =   9.5882461119529E+02
(PID.TID 0000.0001) // =======================================================
(PID.TID 0000.0001) // End OBCS MONITOR field statistics
(PID.TID 0000.0001) // =======================================================
 cg2d: Sum(rhs),rhsMax =   4.51122688697632E+00  2.99940778367273E+02
(PID.TID 0000.0001)      cg2d_init_res =   7.35821366619586E-06
(PID.TID 0000.0001)      cg2d_iters(min,last) =      -1      82
(PID.TID 0000.0001)      cg2d_last_res =   9.73973393206418E-12
(PID.TID 0000.0001) // =======================================================
(PID.TID 0000.0001) // Begin MONITOR dynamic field statistics
(PID.TID 0000.0001) // =======================================================
(PID.TID 0000.0001) %MON time_tsnumber                =                  1137
(PID.TID 0000.0001) %MON time_secondsf                =   1.1370000000000E+05
(PID.TID 0000.0001) %MON dynstat_eta_max              =   5.7974474492200E+00
(PID.TID 0000.0001) %MON dynstat_eta_min              =  -1.4199360126740E+01
(PID.TID 0000.0001) %MON dynstat_eta_mean             =  -2.5057424145760E+00
(PID.TID 0000.0001) %MON dynstat_eta_sd               =   4.9505508019496E+00
(PID.TID 0000.0001) %MON dynstat_eta_del2             =   2.0715421981421E-01
(PID.TID 0000.0001) %MON dynstat_uvel_max             =   6.3878828352060E-03
(PID.TID 0000.0001) %MON dynstat_uvel_min             =  -2.8832176878653E-02
(PID.TID 0000.0001) %MON dynstat_uvel_mean            =  -1.1201753401650E-07
(PID.TID 0000.0001) %MON dynstat_uvel_sd              =   8.4097889265537E-04
(PID.TID 0000.0001) %MON dynstat_uvel_del2            =   1.2302380897666E-06
(PID.TID 0000.0001) %MON dynstat_vvel_max             =   2.2155621214792E-02
(PID.TID 0000.0001) %MON dynstat_vvel_min             =  -9.2611913045424E-03
(PID.TID 0000.0001) %MON dynstat_vvel_mean            =   1.4734632785791E-05
(PID.TID 0000.0001) %MON dynstat_vvel_sd              =   4.9420462839354E-04
(PID.TID 0000.0001) %MON dynstat_vvel_del2            =   9.9387041914428E-07
(PID.TID 0000.0001) %MON dynstat_wvel_max             =   1.1323012631589E-03
(PID.TID 0000.0001) %MON dynstat_wvel_min             =  -1.0937260587968E-03
(PID.TID 0000.0001) %MON dynstat_wvel_mean            =   6.4798403206350E-09
(PID.TID 0000.0001) %MON dynstat_wvel_sd              =   1.9886217466217E-05
(PID.TID 0000.0001) %MON dynstat_wvel_del2            =   8.2987743139929E-08
(PID.TID 0000.0001) %MON dynstat_theta_max            =   1.2000000000000E+00
(PID.TID 0000.0001) %MON dynstat_theta_min            =  -1.0000000000000E+00
(PID.TID 0000.0001) %MON dynstat_theta_mean           =   5.6866230071526E-01
(PID.TID 0000.0001) %MON dynstat_theta_sd             =   8.6834559995866E-01
(PID.TID 0000.0001) %MON dynstat_theta_del2           =   3.1900155107794E-06
(PID.TID 0000.0001) %MON dynstat_salt_max             =   3.4700000000000E+01
(PID.TID 0000.0001) %MON dynstat_salt_min             =   3.4000000000000E+01
(PID.TID 0000.0001) %MON dynstat_salt_mean            =   3.4499079084304E+01
(PID.TID 0000.0001) %MON dynstat_salt_sd              =   2.7627624349558E-01
(PID.TID 0000.0001) %MON dynstat_salt_del2            =   1.2598334851170E-06
(PID.TID 0000.0001) %MON advcfl_uvel_max              =   2.8832176878653E-03
(PID.TID 0000.0001) %MON advcfl_vvel_max              =   2.2155621214792E-03
(PID.TID 0000.0001) %MON advcfl_wvel_max              =   5.6615063157945E-03
(PID.TID 0000.0001) %MON advcfl_W_hf_max              =   5.6615063157945E-03
(PID.TID 0000.0001) %MON pe_b_mean                    =  -8.3030975460219E-01
(PID.TID 0000.0001) %MON ke_max                       =   3.0294695000700E-04
(PID.TID 0000.0001) %MON ke_mean                      =   4.6883306387956E-07
(PID.TID 0000.0001) %MON ke_vol                       =   4.2724759373721E+12
(PID.TID 0000.0001) // =======================================================
(PID.TID 0000.0001) // End MONITOR dynamic field statistics
(PID.TID 0000.0001) // =======================================================
(PID.TID 0000.0001) // =======================================================
(PID.TID 0000.0001) // Begin OBCS MONITOR field statistics
(PID.TID 0000.0001) // =======================================================
(PID.TID 0000.0001) %MON obc_N_vVel_max               =   1.4510792951197E-05
(PID.TID 0000.0001) %MON obc_N_vVel_min               =   1.4510792951196E-05
(PID.TID 0000.0001) %MON obc_N_vVel_mean              =   1.4510792951197E-05
(PID.TID 0000.0001) %MON obc_N_vVel_sd                =  -8.6595470376645E-24
(PID.TID 0000.0001) %MON obc_N_vVel_Int               =   9.5771233477897E+02
(PID.TID 0000.0001) // =======================================================
(PID.TID 0000.0001) // End OBCS MONITOR field statistics
(PID.TID 0000.0001) // =======================================================
 cg2d: Sum(rhs),rhsMax =   4.51124011952618E+00  2.99940848670202E+02
(PID.TID 0000.0001)      cg2d_init_res =   7.36912145906860E-06
(PID.TID 0000.0001)      cg2d_iters(min,last) =      -1      82
(PID.TID 0000.0001)      cg2d_last_res =   9.76514090656110E-12
(PID.TID 0000.0001) // =======================================================
(PID.TID 0000.0001) // Begin MONITOR dynamic field statistics
(PID.TID 0000.0001) // =======================================================
(PID.TID 0000.0001) %MON time_tsnumber                =                  1138
(PID.TID 0000.0001) %MON time_secondsf                =   1.1380000000000E+05
(PID.TID 0000.0001) %MON dynstat_eta_max              =   5.7974283922485E+00
(PID.TID 0000.0001) %MON dynstat_eta_min              =  -1.4199374032510E+01
(PID.TID 0000.0001) %MON dynstat_eta_mean             =  -2.5057503518625E+00
(PID.TID 0000.0001) %MON dynstat_eta_sd               =   4.9505537609537E+00
(PID.TID 0000.0001) %MON dynstat_eta_del2             =   2.0715425416240E-01
(PID.TID 0000.0001) %MON dynstat_uvel_max             =   6.4030451303161E-03
(PID.TID 0000.0001) %MON dynstat_uvel_min             =  -2.8904516077156E-02
(PID.TID 0000.0001) %MON dynstat_uvel_mean            =  -1.1223678905713E-07
(PID.TID 0000.0001) %MON dynstat_uvel_sd              =   8.4298623501102E-04
(PID.TID 0000.0001) %MON dynstat_uvel_del2            =   1.2331679730328E-06
(PID.TID 0000.0001) %MON dynstat_vvel_max             =   2.2202888798263E-02
(PID.TID 0000.0001) %MON dynstat_vvel_min             =  -9.2856486734298E-03
(PID.TID 0000.0001) %MON dynstat_vvel_mean            =   1.4724612643021E-05
(PID.TID 0000.0001) %MON dynstat_vvel_sd              =   4.9514842513866E-04
(PID.TID 0000.0001) %MON dynstat_vvel_del2            =   9.9585646701237E-07
(PID.TID 0000.0001) %MON dynstat_wvel_max             =   1.1350110615720E-03
(PID.TID 0000.0001) %MON dynstat_wvel_min             =  -1.0962855801387E-03
(PID.TID 0000.0001) %MON dynstat_wvel_mean            =   6.5100401595624E-09
(PID.TID 0000.0001) %MON dynstat_wvel_sd              =   1.9847238677147E-05
(PID.TID 0000.0001) %MON dynstat_wvel_del2            =   8.2905578981249E-08
(PID.TID 0000.0001) %MON dynstat_theta_max            =   1.2000000000000E+00
(PID.TID 0000.0001) %MON dynstat_theta_min            =  -1.0000000000000E+00
(PID.TID 0000.0001) %MON dynstat_theta_mean           =   5.6866132556553E-01
(PID.TID 0000.0001) %MON dynstat_theta_sd             =   8.6834507328779E-01
(PID.TID 0000.0001) %MON dynstat_theta_del2           =   3.1966831300587E-06
(PID.TID 0000.0001) %MON dynstat_salt_max             =   3.4700000000000E+01
(PID.TID 0000.0001) %MON dynstat_salt_min             =   3.4000000000000E+01
(PID.TID 0000.0001) %MON dynstat_salt_mean            =   3.4499078694076E+01
(PID.TID 0000.0001) %MON dynstat_salt_sd              =   2.7627604073048E-01
(PID.TID 0000.0001) %MON dynstat_salt_del2            =   1.2624890878615E-06
(PID.TID 0000.0001) %MON advcfl_uvel_max              =   2.8904516077156E-03
(PID.TID 0000.0001) %MON advcfl_vvel_max              =   2.2202888798263E-03
(PID.TID 0000.0001) %MON advcfl_wvel_max              =   5.6750553078599E-03
(PID.TID 0000.0001) %MON advcfl_W_hf_max              =   5.6750553078599E-03
(PID.TID 0000.0001) %MON pe_b_mean                    =  -8.3031168945588E-01
(PID.TID 0000.0001) %MON ke_max                       =   3.0455870478224E-04
(PID.TID 0000.0001) %MON ke_mean                      =   4.7095641376370E-07
(PID.TID 0000.0001) %MON ke_vol                       =   4.2724758900574E+12
(PID.TID 0000.0001) // =======================================================
(PID.TID 0000.0001) // End MONITOR dynamic field statistics
(PID.TID 0000.0001) // =======================================================
(PID.TID 0000.0001) // =======================================================
(PID.TID 0000.0001) // Begin OBCS MONITOR field statistics
(PID.TID 0000.0001) // =======================================================
(PID.TID 0000.0001) %MON obc_N_vVel_max               =   1.4498513832708E-05
(PID.TID 0000.0001) %MON obc_N_vVel_min               =   1.4498513832708E-05
(PID.TID 0000.0001) %MON obc_N_vVel_mean              =   1.4498513832708E-05
(PID.TID 0000.0001) %MON obc_N_vVel_sd                =  -8.3493543079571E-24
(PID.TID 0000.0001) %MON obc_N_vVel_Int               =   9.5690191295873E+02
(PID.TID 0000.0001) // =======================================================
(PID.TID 0000.0001) // End OBCS MONITOR field statistics
(PID.TID 0000.0001) // =======================================================
 cg2d: Sum(rhs),rhsMax =   4.51125331446120E+00  2.99940918726301E+02
(PID.TID 0000.0001)      cg2d_init_res =   7.38306683708035E-06
(PID.TID 0000.0001)      cg2d_iters(min,last) =      -1      82
(PID.TID 0000.0001)      cg2d_last_res =   9.79086722783335E-12
(PID.TID 0000.0001) // =======================================================
(PID.TID 0000.0001) // Begin MONITOR dynamic field statistics
(PID.TID 0000.0001) // =======================================================
(PID.TID 0000.0001) %MON time_tsnumber                =                  1139
(PID.TID 0000.0001) %MON time_secondsf                =   1.1390000000000E+05
(PID.TID 0000.0001) %MON dynstat_eta_max              =   5.7974093627817E+00
(PID.TID 0000.0001) %MON dynstat_eta_min              =  -1.4199387914121E+01
(PID.TID 0000.0001) %MON dynstat_eta_mean             =  -2.5057582661973E+00
(PID.TID 0000.0001) %MON dynstat_eta_sd               =   4.9505567174987E+00
(PID.TID 0000.0001) %MON dynstat_eta_del2             =   2.0715428857275E-01
(PID.TID 0000.0001) %MON dynstat_uvel_max             =   6.4182349154791E-03
(PID.TID 0000.0001) %MON dynstat_uvel_min             =  -2.8976974827401E-02
(PID.TID 0000.0001) %MON dynstat_uvel_mean            =  -1.1246251753779E-07
(PID.TID 0000.0001) %MON dynstat_uvel_sd              =   8.4499750076058E-04
(PID.TID 0000.0001) %MON dynstat_uvel_del2            =   1.2361053776443E-06
(PID.TID 0000.0001) %MON dynstat_vvel_max             =   2.2250197281820E-02
(PID.TID 0000.0001) %MON dynstat_vvel_min             =  -9.3101628836454E-03
(PID.TID 0000.0001) %MON dynstat_vvel_mean            =   1.4719925307870E-05
(PID.TID 0000.0001) %MON dynstat_vvel_sd              =   4.9609372543697E-04
(PID.TID 0000.0001) %MON dynstat_vvel_del2            =   9.9784976324096E-07
(PID.TID 0000.0001) %MON dynstat_wvel_max             =   1.1377242557094E-03
(PID.TID 0000.0001) %MON dynstat_wvel_min             =  -1.0988485188989E-03
(PID.TID 0000.0001) %MON dynstat_wvel_mean            =   6.5469032137013E-09
(PID.TID 0000.0001) %MON dynstat_wvel_sd              =   1.9807238476119E-05
(PID.TID 0000.0001) %MON dynstat_wvel_del2            =   8.2811369605115E-08
(PID.TID 0000.0001) %MON dynstat_theta_max            =   1.2000000000000E+00
(PID.TID 0000.0001) %MON dynstat_theta_min            =  -1.0000000000000E+00
(PID.TID 0000.0001) %MON dynstat_theta_mean           =   5.6866034868307E-01
(PID.TID 0000.0001) %MON dynstat_theta_sd             =   8.6834454570031E-01
(PID.TID 0000.0001) %MON dynstat_theta_del2           =   3.2033643106490E-06
(PID.TID 0000.0001) %MON dynstat_salt_max             =   3.4700000000000E+01
(PID.TID 0000.0001) %MON dynstat_salt_min             =   3.4000000000000E+01
(PID.TID 0000.0001) %MON dynstat_salt_mean            =   3.4499078303154E+01
(PID.TID 0000.0001) %MON dynstat_salt_sd              =   2.7627583761087E-01
(PID.TID 0000.0001) %MON dynstat_salt_del2            =   1.2651493101270E-06
(PID.TID 0000.0001) %MON advcfl_uvel_max              =   2.8976974827401E-03
(PID.TID 0000.0001) %MON advcfl_vvel_max              =   2.2250197281820E-03
(PID.TID 0000.0001) %MON advcfl_wvel_max              =   5.6886212785468E-03
(PID.TID 0000.0001) %MON advcfl_W_hf_max              =   5.6886212785468E-03
(PID.TID 0000.0001) %MON pe_b_mean                    =  -8.3031361835399E-01
(PID.TID 0000.0001) %MON ke_max                       =   3.0617783194299E-04
(PID.TID 0000.0001) %MON ke_mean                      =   4.7308867737488E-07
(PID.TID 0000.0001) %MON ke_vol                       =   4.2724758429099E+12
(PID.TID 0000.0001) // =======================================================
(PID.TID 0000.0001) // End MONITOR dynamic field statistics
(PID.TID 0000.0001) // =======================================================
(PID.TID 0000.0001) // =======================================================
(PID.TID 0000.0001) // Begin OBCS MONITOR field statistics
(PID.TID 0000.0001) // =======================================================
(PID.TID 0000.0001) %MON obc_N_vVel_max               =   1.4490936395123E-05
(PID.TID 0000.0001) %MON obc_N_vVel_min               =   1.4490936395122E-05
(PID.TID 0000.0001) %MON obc_N_vVel_mean              =   1.4490936395123E-05
(PID.TID 0000.0001) %MON obc_N_vVel_sd                =  -1.3157341618422E-23
(PID.TID 0000.0001) %MON obc_N_vVel_Int               =   9.5640180207810E+02
(PID.TID 0000.0001) // =======================================================
(PID.TID 0000.0001) // End OBCS MONITOR field statistics
(PID.TID 0000.0001) // =======================================================
 cg2d: Sum(rhs),rhsMax =   4.51126647976010E+00  2.99940988636228E+02
(PID.TID 0000.0001)      cg2d_init_res =   7.40000149047276E-06
(PID.TID 0000.0001)      cg2d_iters(min,last) =      -1      82
(PID.TID 0000.0001)      cg2d_last_res =   9.81665521069153E-12
(PID.TID 0000.0001) // =======================================================
(PID.TID 0000.0001) // Begin MONITOR dynamic field statistics
(PID.TID 0000.0001) // =======================================================
(PID.TID 0000.0001) %MON time_tsnumber                =                  1140
(PID.TID 0000.0001) %MON time_secondsf                =   1.1400000000000E+05
(PID.TID 0000.0001) %MON dynstat_eta_max              =   5.7973903510832E+00
(PID.TID 0000.0001) %MON dynstat_eta_min              =  -1.4199401780933E+01
(PID.TID 0000.0001) %MON dynstat_eta_mean             =  -2.5057661628532E+00
(PID.TID 0000.0001) %MON dynstat_eta_sd               =   4.9505596733253E+00
(PID.TID 0000.0001) %MON dynstat_eta_del2             =   2.0715432304683E-01
(PID.TID 0000.0001) %MON dynstat_uvel_max             =   6.4334522367488E-03
(PID.TID 0000.0001) %MON dynstat_uvel_min             =  -2.9049553209568E-02
(PID.TID 0000.0001) %MON dynstat_uvel_mean            =  -1.1269301962165E-07
(PID.TID 0000.0001) %MON dynstat_uvel_sd              =   8.4701269809655E-04
(PID.TID 0000.0001) %MON dynstat_uvel_del2            =   1.2390503104909E-06
(PID.TID 0000.0001) %MON dynstat_vvel_max             =   2.2297546484432E-02
(PID.TID 0000.0001) %MON dynstat_vvel_min             =  -9.3347340456287E-03
(PID.TID 0000.0001) %MON dynstat_vvel_mean            =   1.4720591905276E-05
(PID.TID 0000.0001) %MON dynstat_vvel_sd              =   4.9704130829363E-04
(PID.TID 0000.0001) %MON dynstat_vvel_del2            =   9.9985401324293E-07
(PID.TID 0000.0001) %MON dynstat_wvel_max             =   1.1404408385798E-03
(PID.TID 0000.0001) %MON dynstat_wvel_min             =  -1.1014148654308E-03
(PID.TID 0000.0001) %MON dynstat_wvel_mean            =   6.5898863423120E-09
(PID.TID 0000.0001) %MON dynstat_wvel_sd              =   1.9769949713701E-05
(PID.TID 0000.0001) %MON dynstat_wvel_del2            =   8.2716223675642E-08
(PID.TID 0000.0001) %MON dynstat_theta_max            =   1.2000000000000E+00
(PID.TID 0000.0001) %MON dynstat_theta_min            =  -1.0000000000000E+00
(PID.TID 0000.0001) %MON dynstat_theta_mean           =   5.6865937006693E-01
(PID.TID 0000.0001) %MON dynstat_theta_sd             =   8.6834401719659E-01
(PID.TID 0000.0001) %MON dynstat_theta_del2           =   3.2100534354178E-06
(PID.TID 0000.0001) %MON dynstat_salt_max             =   3.4700000000000E+01
(PID.TID 0000.0001) %MON dynstat_salt_min             =   3.4000000000000E+01
(PID.TID 0000.0001) %MON dynstat_salt_mean            =   3.4499077911537E+01
(PID.TID 0000.0001) %MON dynstat_salt_sd              =   2.7627563413702E-01
(PID.TID 0000.0001) %MON dynstat_salt_del2            =   1.2678128415106E-06
(PID.TID 0000.0001) %MON advcfl_uvel_max              =   2.9049553209568E-03
(PID.TID 0000.0001) %MON advcfl_vvel_max              =   2.2297546484432E-03
(PID.TID 0000.0001) %MON advcfl_wvel_max              =   5.7022041928988E-03
(PID.TID 0000.0001) %MON advcfl_W_hf_max              =   5.7022041928988E-03
(PID.TID 0000.0001) %MON pe_b_mean                    =  -8.3031554265221E-01
(PID.TID 0000.0001) %MON ke_max                       =   3.0780435940127E-04
(PID.TID 0000.0001) %MON ke_mean                      =   4.7523027637590E-07
(PID.TID 0000.0001) %MON ke_vol                       =   4.2724757958988E+12
(PID.TID 0000.0001) // =======================================================
(PID.TID 0000.0001) // End MONITOR dynamic field statistics
(PID.TID 0000.0001) // =======================================================
(PID.TID 0000.0001) // =======================================================
(PID.TID 0000.0001) // Begin OBCS MONITOR field statistics
(PID.TID 0000.0001) // =======================================================
(PID.TID 0000.0001) %MON obc_N_vVel_max               =   1.4488123817059E-05
(PID.TID 0000.0001) %MON obc_N_vVel_min               =   1.4488123817058E-05
(PID.TID 0000.0001) %MON obc_N_vVel_mean              =   1.4488123817059E-05
(PID.TID 0000.0001) %MON obc_N_vVel_sd                =  -2.1118955014244E-23
(PID.TID 0000.0001) %MON obc_N_vVel_Int               =   9.5621617192590E+02
(PID.TID 0000.0001) // =======================================================
(PID.TID 0000.0001) // End OBCS MONITOR field statistics
(PID.TID 0000.0001) // =======================================================
 cg2d: Sum(rhs),rhsMax =   4.51127962342567E+00  2.99941058498575E+02
(PID.TID 0000.0001)      cg2d_init_res =   7.41985710535251E-06
(PID.TID 0000.0001)      cg2d_iters(min,last) =      -1      82
(PID.TID 0000.0001)      cg2d_last_res =   9.84220632934791E-12
(PID.TID 0000.0001) // =======================================================
(PID.TID 0000.0001) // Begin MONITOR dynamic field statistics
(PID.TID 0000.0001) // =======================================================
(PID.TID 0000.0001) %MON time_tsnumber                =                  1141
(PID.TID 0000.0001) %MON time_secondsf                =   1.1410000000000E+05
(PID.TID 0000.0001) %MON dynstat_eta_max              =   5.7973713473437E+00
(PID.TID 0000.0001) %MON dynstat_eta_min              =  -1.4199415642166E+01
(PID.TID 0000.0001) %MON dynstat_eta_mean             =  -2.5057740470988E+00
(PID.TID 0000.0001) %MON dynstat_eta_sd               =   4.9505626301165E+00
(PID.TID 0000.0001) %MON dynstat_eta_del2             =   2.0715435758643E-01
(PID.TID 0000.0001) %MON dynstat_uvel_max             =   6.4486971457534E-03
(PID.TID 0000.0001) %MON dynstat_uvel_min             =  -2.9122251298269E-02
(PID.TID 0000.0001) %MON dynstat_uvel_mean            =  -1.1292593513280E-07
(PID.TID 0000.0001) %MON dynstat_uvel_sd              =   8.4903183509142E-04
(PID.TID 0000.0001) %MON dynstat_uvel_del2            =   1.2420027824390E-06
(PID.TID 0000.0001) %MON dynstat_vvel_max             =   2.2344936209302E-02
(PID.TID 0000.0001) %MON dynstat_vvel_min             =  -9.3593622839609E-03
(PID.TID 0000.0001) %MON dynstat_vvel_mean            =   1.4726559759918E-05
(PID.TID 0000.0001) %MON dynstat_vvel_sd              =   4.9799190570083E-04
(PID.TID 0000.0001) %MON dynstat_vvel_del2            =   1.0018726518474E-06
(PID.TID 0000.0001) %MON dynstat_wvel_max             =   1.1431608032111E-03
(PID.TID 0000.0001) %MON dynstat_wvel_min             =  -1.1039846093757E-03
(PID.TID 0000.0001) %MON dynstat_wvel_mean            =   6.6383635241497E-09
(PID.TID 0000.0001) %MON dynstat_wvel_sd              =   1.9738958872551E-05
(PID.TID 0000.0001) %MON dynstat_wvel_del2            =   8.2631801044871E-08
(PID.TID 0000.0001) %MON dynstat_theta_max            =   1.2000000000000E+00
(PID.TID 0000.0001) %MON dynstat_theta_min            =  -1.0000000000000E+00
(PID.TID 0000.0001) %MON dynstat_theta_mean           =   5.6865838971603E-01
(PID.TID 0000.0001) %MON dynstat_theta_sd             =   8.6834348777649E-01
(PID.TID 0000.0001) %MON dynstat_theta_del2           =   3.2167443830006E-06
(PID.TID 0000.0001) %MON dynstat_salt_max             =   3.4700000000000E+01
(PID.TID 0000.0001) %MON dynstat_salt_min             =   3.4000000000000E+01
(PID.TID 0000.0001) %MON dynstat_salt_mean            =   3.4499077519224E+01
(PID.TID 0000.0001) %MON dynstat_salt_sd              =   2.7627543030860E-01
(PID.TID 0000.0001) %MON dynstat_salt_del2            =   1.2704766262398E-06
(PID.TID 0000.0001) %MON advcfl_uvel_max              =   2.9122251298269E-03
(PID.TID 0000.0001) %MON advcfl_vvel_max              =   2.2344936209302E-03
(PID.TID 0000.0001) %MON advcfl_wvel_max              =   5.7158040160556E-03
(PID.TID 0000.0001) %MON advcfl_W_hf_max              =   5.7158040160556E-03
(PID.TID 0000.0001) %MON pe_b_mean                    =  -8.3031746368727E-01
(PID.TID 0000.0001) %MON ke_max                       =   3.0943831505651E-04
(PID.TID 0000.0001) %MON ke_mean                      =   4.7738161100011E-07
(PID.TID 0000.0001) %MON ke_vol                       =   4.2724757489927E+12
(PID.TID 0000.0001) // =======================================================
(PID.TID 0000.0001) // End MONITOR dynamic field statistics
(PID.TID 0000.0001) // =======================================================
(PID.TID 0000.0001) // =======================================================
(PID.TID 0000.0001) // Begin OBCS MONITOR field statistics
(PID.TID 0000.0001) // =======================================================
(PID.TID 0000.0001) %MON obc_N_vVel_max               =   1.4490073462017E-05
(PID.TID 0000.0001) %MON obc_N_vVel_min               =   1.4490073462017E-05
(PID.TID 0000.0001) %MON obc_N_vVel_mean              =   1.4490073462017E-05
(PID.TID 0000.0001) %MON obc_N_vVel_sd                =   3.5553275145303E-12
(PID.TID 0000.0001) %MON obc_N_vVel_Int               =   9.5634484849310E+02
(PID.TID 0000.0001) // =======================================================
(PID.TID 0000.0001) // End OBCS MONITOR field statistics
(PID.TID 0000.0001) // =======================================================
 cg2d: Sum(rhs),rhsMax =   4.51129275338136E+00  2.99941128408035E+02
(PID.TID 0000.0001)      cg2d_init_res =   7.44235031703935E-06
(PID.TID 0000.0001)      cg2d_iters(min,last) =      -1      82
(PID.TID 0000.0001)      cg2d_last_res =   9.86727784470120E-12
(PID.TID 0000.0001) // =======================================================
(PID.TID 0000.0001) // Begin MONITOR dynamic field statistics
(PID.TID 0000.0001) // =======================================================
(PID.TID 0000.0001) %MON time_tsnumber                =                  1142
(PID.TID 0000.0001) %MON time_secondsf                =   1.1420000000000E+05
(PID.TID 0000.0001) %MON dynstat_eta_max              =   5.7973523422399E+00
(PID.TID 0000.0001) %MON dynstat_eta_min              =  -1.4199429506789E+01
(PID.TID 0000.0001) %MON dynstat_eta_mean             =  -2.5057819241263E+00
(PID.TID 0000.0001) %MON dynstat_eta_sd               =   4.9505655894593E+00
(PID.TID 0000.0001) %MON dynstat_eta_del2             =   2.0715439219234E-01
(PID.TID 0000.0001) %MON dynstat_uvel_max             =   6.4639697006150E-03
(PID.TID 0000.0001) %MON dynstat_uvel_min             =  -2.9195069158678E-02
(PID.TID 0000.0001) %MON dynstat_uvel_mean            =  -1.1315826766839E-07
(PID.TID 0000.0001) %MON dynstat_uvel_sd              =   8.5105492017116E-04
(PID.TID 0000.0001) %MON dynstat_uvel_del2            =   1.2449627660994E-06
(PID.TID 0000.0001) %MON dynstat_vvel_max             =   2.2392366243783E-02
(PID.TID 0000.0001) %MON dynstat_vvel_min             =  -9.3840477371341E-03
(PID.TID 0000.0001) %MON dynstat_vvel_mean            =   1.4737703327949E-05
(PID.TID 0000.0001) %MON dynstat_vvel_sd              =   4.9894616380709E-04
(PID.TID 0000.0001) %MON dynstat_vvel_del2            =   1.0039086627935E-06
(PID.TID 0000.0001) %MON dynstat_wvel_max             =   1.1458841426284E-03
(PID.TID 0000.0001) %MON dynstat_wvel_min             =  -1.1065577396347E-03
(PID.TID 0000.0001) %MON dynstat_wvel_mean            =   6.6916364672224E-09
(PID.TID 0000.0001) %MON dynstat_wvel_sd              =   1.9717504840467E-05
(PID.TID 0000.0001) %MON dynstat_wvel_del2            =   8.2569682869136E-08
(PID.TID 0000.0001) %MON dynstat_theta_max            =   1.2000000000000E+00
(PID.TID 0000.0001) %MON dynstat_theta_min            =  -1.0000000000000E+00
(PID.TID 0000.0001) %MON dynstat_theta_mean           =   5.6865740762929E-01
(PID.TID 0000.0001) %MON dynstat_theta_sd             =   8.6834295743635E-01
(PID.TID 0000.0001) %MON dynstat_theta_del2           =   3.2234230149507E-06
(PID.TID 0000.0001) %MON dynstat_salt_max             =   3.4700000000000E+01
(PID.TID 0000.0001) %MON dynstat_salt_min             =   3.4000000000000E+01
(PID.TID 0000.0001) %MON dynstat_salt_mean            =   3.4499077126216E+01
(PID.TID 0000.0001) %MON dynstat_salt_sd              =   2.7627522612447E-01
(PID.TID 0000.0001) %MON dynstat_salt_del2            =   1.2731385745783E-06
(PID.TID 0000.0001) %MON advcfl_uvel_max              =   2.9195069158678E-03
(PID.TID 0000.0001) %MON advcfl_vvel_max              =   2.2392366243783E-03
(PID.TID 0000.0001) %MON advcfl_wvel_max              =   5.7294207131421E-03
(PID.TID 0000.0001) %MON advcfl_W_hf_max              =   5.7294207131421E-03
(PID.TID 0000.0001) %MON pe_b_mean                    =  -8.3031938275852E-01
(PID.TID 0000.0001) %MON ke_max                       =   3.1107972671782E-04
(PID.TID 0000.0001) %MON ke_mean                      =   4.7954304088047E-07
(PID.TID 0000.0001) %MON ke_vol                       =   4.2724757021602E+12
(PID.TID 0000.0001) // =======================================================
(PID.TID 0000.0001) // End MONITOR dynamic field statistics
(PID.TID 0000.0001) // =======================================================
(PID.TID 0000.0001) // =======================================================
(PID.TID 0000.0001) // Begin OBCS MONITOR field statistics
(PID.TID 0000.0001) // =======================================================
(PID.TID 0000.0001) %MON obc_N_vVel_max               =   1.4496717128960E-05
(PID.TID 0000.0001) %MON obc_N_vVel_min               =   1.4496717128960E-05
(PID.TID 0000.0001) %MON obc_N_vVel_mean              =   1.4496717128960E-05
(PID.TID 0000.0001) %MON obc_N_vVel_sd                =  -1.0779197357332E-23
(PID.TID 0000.0001) %MON obc_N_vVel_Int               =   9.5678333051137E+02
(PID.TID 0000.0001) // =======================================================
(PID.TID 0000.0001) // End OBCS MONITOR field statistics
(PID.TID 0000.0001) // =======================================================
 cg2d: Sum(rhs),rhsMax =   4.51130587736139E+00  2.99941198454243E+02
(PID.TID 0000.0001)      cg2d_init_res =   7.46747682402694E-06
(PID.TID 0000.0001)      cg2d_iters(min,last) =      -1      82
(PID.TID 0000.0001)      cg2d_last_res =   9.89160624685963E-12
(PID.TID 0000.0001) // =======================================================
(PID.TID 0000.0001) // Begin MONITOR dynamic field statistics
(PID.TID 0000.0001) // =======================================================
(PID.TID 0000.0001) %MON time_tsnumber                =                  1143
(PID.TID 0000.0001) %MON time_secondsf                =   1.1430000000000E+05
(PID.TID 0000.0001) %MON dynstat_eta_max              =   5.7973333267224E+00
(PID.TID 0000.0001) %MON dynstat_eta_min              =  -1.4199443383354E+01
(PID.TID 0000.0001) %MON dynstat_eta_mean             =  -2.5057897989805E+00
(PID.TID 0000.0001) %MON dynstat_eta_sd               =   4.9505685528413E+00
(PID.TID 0000.0001) %MON dynstat_eta_del2             =   2.0715442686586E-01
(PID.TID 0000.0001) %MON dynstat_uvel_max             =   6.4792699652294E-03
(PID.TID 0000.0001) %MON dynstat_uvel_min             =  -2.9268006853024E-02
(PID.TID 0000.0001) %MON dynstat_uvel_mean            =  -1.1338637098558E-07
(PID.TID 0000.0001) %MON dynstat_uvel_sd              =   8.5308196170711E-04
(PID.TID 0000.0001) %MON dynstat_uvel_del2            =   1.2479302449689E-06
(PID.TID 0000.0001) %MON dynstat_vvel_max             =   2.2439836359798E-02
(PID.TID 0000.0001) %MON dynstat_vvel_min             =  -9.4087905579148E-03
(PID.TID 0000.0001) %MON dynstat_vvel_mean            =   1.4753826018847E-05
(PID.TID 0000.0001) %MON dynstat_vvel_sd              =   4.9990460815857E-04
(PID.TID 0000.0001) %MON dynstat_vvel_del2            =   1.0059643929616E-06
(PID.TID 0000.0001) %MON dynstat_wvel_max             =   1.1486108498593E-03
(PID.TID 0000.0001) %MON dynstat_wvel_min             =  -1.1091342443991E-03
(PID.TID 0000.0001) %MON dynstat_wvel_mean            =   6.7489393124823E-09
(PID.TID 0000.0001) %MON dynstat_wvel_sd              =   1.9708289951876E-05
(PID.TID 0000.0001) %MON dynstat_wvel_del2            =   8.2540677194679E-08
(PID.TID 0000.0001) %MON dynstat_theta_max            =   1.2000000000000E+00
(PID.TID 0000.0001) %MON dynstat_theta_min            =  -1.0000000000000E+00
(PID.TID 0000.0001) %MON dynstat_theta_mean           =   5.6865642380564E-01
(PID.TID 0000.0001) %MON dynstat_theta_sd             =   8.6834242617454E-01
(PID.TID 0000.0001) %MON dynstat_theta_del2           =   3.2300959184196E-06
(PID.TID 0000.0001) %MON dynstat_salt_max             =   3.4700000000000E+01
(PID.TID 0000.0001) %MON dynstat_salt_min             =   3.4000000000000E+01
(PID.TID 0000.0001) %MON dynstat_salt_mean            =   3.4499076732511E+01
(PID.TID 0000.0001) %MON dynstat_salt_sd              =   2.7627502158414E-01
(PID.TID 0000.0001) %MON dynstat_salt_del2            =   1.2757998763567E-06
(PID.TID 0000.0001) %MON advcfl_uvel_max              =   2.9268006853024E-03
(PID.TID 0000.0001) %MON advcfl_vvel_max              =   2.2439836359798E-03
(PID.TID 0000.0001) %MON advcfl_wvel_max              =   5.7430542492964E-03
(PID.TID 0000.0001) %MON advcfl_W_hf_max              =   5.7430542492964E-03
(PID.TID 0000.0001) %MON pe_b_mean                    =  -8.3032130110999E-01
(PID.TID 0000.0001) %MON ke_max                       =   3.1272862224323E-04
(PID.TID 0000.0001) %MON ke_mean                      =   4.8171486696917E-07
(PID.TID 0000.0001) %MON ke_vol                       =   4.2724756553707E+12
(PID.TID 0000.0001) // =======================================================
(PID.TID 0000.0001) // End MONITOR dynamic field statistics
(PID.TID 0000.0001) // =======================================================
(PID.TID 0000.0001) // =======================================================
(PID.TID 0000.0001) // Begin OBCS MONITOR field statistics
(PID.TID 0000.0001) // =======================================================
(PID.TID 0000.0001) %MON obc_N_vVel_max               =   1.4507922152793E-05
(PID.TID 0000.0001) %MON obc_N_vVel_min               =   1.4507922152793E-05
(PID.TID 0000.0001) %MON obc_N_vVel_mean              =   1.4507922152793E-05
(PID.TID 0000.0001) %MON obc_N_vVel_sd                =  -4.7562885221799E-24
(PID.TID 0000.0001) %MON obc_N_vVel_Int               =   9.5752286208434E+02
(PID.TID 0000.0001) // =======================================================
(PID.TID 0000.0001) // End OBCS MONITOR field statistics
(PID.TID 0000.0001) // =======================================================
 cg2d: Sum(rhs),rhsMax =   4.51131900280400E+00  2.99941268720707E+02
(PID.TID 0000.0001)      cg2d_init_res =   7.49509892250105E-06
(PID.TID 0000.0001)      cg2d_iters(min,last) =      -1      82
(PID.TID 0000.0001)      cg2d_last_res =   9.91492972056398E-12
(PID.TID 0000.0001) // =======================================================
(PID.TID 0000.0001) // Begin MONITOR dynamic field statistics
(PID.TID 0000.0001) // =======================================================
(PID.TID 0000.0001) %MON time_tsnumber                =                  1144
(PID.TID 0000.0001) %MON time_secondsf                =   1.1440000000000E+05
(PID.TID 0000.0001) %MON dynstat_eta_max              =   5.7973142922152E+00
(PID.TID 0000.0001) %MON dynstat_eta_min              =  -1.4199457279908E+01
(PID.TID 0000.0001) %MON dynstat_eta_mean             =  -2.5057976764905E+00
(PID.TID 0000.0001) %MON dynstat_eta_sd               =   4.9505715216288E+00
(PID.TID 0000.0001) %MON dynstat_eta_del2             =   2.0715446160859E-01
(PID.TID 0000.0001) %MON dynstat_uvel_max             =   6.4945980083166E-03
(PID.TID 0000.0001) %MON dynstat_uvel_min             =  -2.9341064439093E-02
(PID.TID 0000.0001) %MON dynstat_uvel_mean            =  -1.1360606067267E-07
(PID.TID 0000.0001) %MON dynstat_uvel_sd              =   8.5511296782599E-04
(PID.TID 0000.0001) %MON dynstat_uvel_del2            =   1.2509052386194E-06
(PID.TID 0000.0001) %MON dynstat_vvel_max             =   2.2487346314336E-02
(PID.TID 0000.0001) %MON dynstat_vvel_min             =  -9.4335909112768E-03
(PID.TID 0000.0001) %MON dynstat_vvel_mean            =   1.4774663047323E-05
(PID.TID 0000.0001) %MON dynstat_vvel_sd              =   5.0086761605381E-04
(PID.TID 0000.0001) %MON dynstat_vvel_del2            =   1.0080413971626E-06
(PID.TID 0000.0001) %MON dynstat_wvel_max             =   1.1513409179392E-03
(PID.TID 0000.0001) %MON dynstat_wvel_min             =  -1.1117141111573E-03
(PID.TID 0000.0001) %MON dynstat_wvel_mean            =   6.8094525733181E-09
(PID.TID 0000.0001) %MON dynstat_wvel_sd              =   1.9713316857805E-05
(PID.TID 0000.0001) %MON dynstat_wvel_del2            =   8.2554102190460E-08
(PID.TID 0000.0001) %MON dynstat_theta_max            =   1.2000000000000E+00
(PID.TID 0000.0001) %MON dynstat_theta_min            =  -1.0000000000000E+00
(PID.TID 0000.0001) %MON dynstat_theta_mean           =   5.6865543824417E-01
(PID.TID 0000.0001) %MON dynstat_theta_sd             =   8.6834189398614E-01
(PID.TID 0000.0001) %MON dynstat_theta_del2           =   3.2367601890159E-06
(PID.TID 0000.0001) %MON dynstat_salt_max             =   3.4700000000000E+01
(PID.TID 0000.0001) %MON dynstat_salt_min             =   3.4000000000000E+01
(PID.TID 0000.0001) %MON dynstat_salt_mean            =   3.4499076338109E+01
(PID.TID 0000.0001) %MON dynstat_salt_sd              =   2.7627481668595E-01
(PID.TID 0000.0001) %MON dynstat_salt_del2            =   1.2784596490330E-06
(PID.TID 0000.0001) %MON advcfl_uvel_max              =   2.9341064439093E-03
(PID.TID 0000.0001) %MON advcfl_vvel_max              =   2.2487346314336E-03
(PID.TID 0000.0001) %MON advcfl_wvel_max              =   5.7567045896961E-03
(PID.TID 0000.0001) %MON advcfl_W_hf_max              =   5.7567045896961E-03
(PID.TID 0000.0001) %MON pe_b_mean                    =  -8.3032321991386E-01
(PID.TID 0000.0001) %MON ke_max                       =   3.1438502949035E-04
(PID.TID 0000.0001) %MON ke_mean                      =   4.8389731700583E-07
(PID.TID 0000.0001) %MON ke_vol                       =   4.2724756085941E+12
(PID.TID 0000.0001) // =======================================================
(PID.TID 0000.0001) // End MONITOR dynamic field statistics
(PID.TID 0000.0001) // =======================================================
(PID.TID 0000.0001) // =======================================================
(PID.TID 0000.0001) // Begin OBCS MONITOR field statistics
(PID.TID 0000.0001) // =======================================================
(PID.TID 0000.0001) %MON obc_N_vVel_max               =   1.4523493285891E-05
(PID.TID 0000.0001) %MON obc_N_vVel_min               =   1.4523493285891E-05
(PID.TID 0000.0001) %MON obc_N_vVel_mean              =   1.4523493285891E-05
(PID.TID 0000.0001) %MON obc_N_vVel_sd                =   4.1084856547042E-12
(PID.TID 0000.0001) %MON obc_N_vVel_Int               =   9.5855055686877E+02
(PID.TID 0000.0001) // =======================================================
(PID.TID 0000.0001) // End OBCS MONITOR field statistics
(PID.TID 0000.0001) // =======================================================
 cg2d: Sum(rhs),rhsMax =   4.51133213674780E+00  2.99941339283672E+02
(PID.TID 0000.0001)      cg2d_init_res =   7.52485133595775E-06
(PID.TID 0000.0001)      cg2d_iters(min,last) =      -1      82
(PID.TID 0000.0001)      cg2d_last_res =   9.93699235685861E-12
(PID.TID 0000.0001) // =======================================================
(PID.TID 0000.0001) // Begin MONITOR dynamic field statistics
(PID.TID 0000.0001) // =======================================================
(PID.TID 0000.0001) %MON time_tsnumber                =                  1145
(PID.TID 0000.0001) %MON time_secondsf                =   1.1450000000000E+05
(PID.TID 0000.0001) %MON dynstat_eta_max              =   5.7972952307347E+00
(PID.TID 0000.0001) %MON dynstat_eta_min              =  -1.4199471203864E+01
(PID.TID 0000.0001) %MON dynstat_eta_mean             =  -2.5058055612030E+00
(PID.TID 0000.0001) %MON dynstat_eta_sd               =   4.9505744970386E+00
(PID.TID 0000.0001) %MON dynstat_eta_del2             =   2.0715449642149E-01
(PID.TID 0000.0001) %MON dynstat_uvel_max             =   6.5099539027145E-03
(PID.TID 0000.0001) %MON dynstat_uvel_min             =  -2.9414241968946E-02
(PID.TID 0000.0001) %MON dynstat_uvel_mean            =  -1.1381287738967E-07
(PID.TID 0000.0001) %MON dynstat_uvel_sd              =   8.5714794672671E-04
(PID.TID 0000.0001) %MON dynstat_uvel_del2            =   1.2538877697726E-06
(PID.TID 0000.0001) %MON dynstat_vvel_max             =   2.2534895850557E-02
(PID.TID 0000.0001) %MON dynstat_vvel_min             =  -9.4584489726195E-03
(PID.TID 0000.0001) %MON dynstat_vvel_mean            =   1.4799885312087E-05
(PID.TID 0000.0001) %MON dynstat_vvel_sd              =   5.0183539777637E-04
(PID.TID 0000.0001) %MON dynstat_vvel_del2            =   1.0101403307263E-06
(PID.TID 0000.0001) %MON dynstat_wvel_max             =   1.1540743398816E-03
(PID.TID 0000.0001) %MON dynstat_wvel_min             =  -1.1142973269529E-03
(PID.TID 0000.0001) %MON dynstat_wvel_mean            =   6.8723153010949E-09
(PID.TID 0000.0001) %MON dynstat_wvel_sd              =   1.9733764356922E-05
(PID.TID 0000.0001) %MON dynstat_wvel_del2            =   8.2617099998138E-08
(PID.TID 0000.0001) %MON dynstat_theta_max            =   1.2000000000000E+00
(PID.TID 0000.0001) %MON dynstat_theta_min            =  -1.0000000000000E+00
(PID.TID 0000.0001) %MON dynstat_theta_mean           =   5.6865445094403E-01
(PID.TID 0000.0001) %MON dynstat_theta_sd             =   8.6834136086210E-01
(PID.TID 0000.0001) %MON dynstat_theta_del2           =   3.2434114849631E-06
(PID.TID 0000.0001) %MON dynstat_salt_max             =   3.4700000000000E+01
(PID.TID 0000.0001) %MON dynstat_salt_min             =   3.4000000000000E+01
(PID.TID 0000.0001) %MON dynstat_salt_mean            =   3.4499075943009E+01
(PID.TID 0000.0001) %MON dynstat_salt_sd              =   2.7627461142724E-01
(PID.TID 0000.0001) %MON dynstat_salt_del2            =   1.2811181241156E-06
(PID.TID 0000.0001) %MON advcfl_uvel_max              =   2.9414241968946E-03
(PID.TID 0000.0001) %MON advcfl_vvel_max              =   2.2534895850557E-03
(PID.TID 0000.0001) %MON advcfl_wvel_max              =   5.7703716994079E-03
(PID.TID 0000.0001) %MON advcfl_W_hf_max              =   5.7703716994079E-03
(PID.TID 0000.0001) %MON pe_b_mean                    =  -8.3032514025411E-01
(PID.TID 0000.0001) %MON ke_max                       =   3.1604897628590E-04
(PID.TID 0000.0001) %MON ke_mean                      =   4.8609053570909E-07
(PID.TID 0000.0001) %MON ke_vol                       =   4.2724755618016E+12
(PID.TID 0000.0001) // =======================================================
(PID.TID 0000.0001) // End MONITOR dynamic field statistics
(PID.TID 0000.0001) // =======================================================
(PID.TID 0000.0001) // =======================================================
(PID.TID 0000.0001) // Begin OBCS MONITOR field statistics
(PID.TID 0000.0001) // =======================================================
(PID.TID 0000.0001) %MON obc_N_vVel_max               =   1.4543175675027E-05
(PID.TID 0000.0001) %MON obc_N_vVel_min               =   1.4543175675027E-05
(PID.TID 0000.0001) %MON obc_N_vVel_mean              =   1.4543175675027E-05
(PID.TID 0000.0001) %MON obc_N_vVel_sd                =   1.8047225997165E-12
(PID.TID 0000.0001) %MON obc_N_vVel_Int               =   9.5984959455179E+02
(PID.TID 0000.0001) // =======================================================
(PID.TID 0000.0001) // End OBCS MONITOR field statistics
(PID.TID 0000.0001) // =======================================================
 cg2d: Sum(rhs),rhsMax =   4.51134528573153E+00  2.99941410211303E+02
(PID.TID 0000.0001)      cg2d_init_res =   7.55647406181245E-06
(PID.TID 0000.0001)      cg2d_iters(min,last) =      -1      82
(PID.TID 0000.0001)      cg2d_last_res =   9.95766193202317E-12
(PID.TID 0000.0001) // =======================================================
(PID.TID 0000.0001) // Begin MONITOR dynamic field statistics
(PID.TID 0000.0001) // =======================================================
(PID.TID 0000.0001) %MON time_tsnumber                =                  1146
(PID.TID 0000.0001) %MON time_secondsf                =   1.1460000000000E+05
(PID.TID 0000.0001) %MON dynstat_eta_max              =   5.7972761349879E+00
(PID.TID 0000.0001) %MON dynstat_eta_min              =  -1.4199485161900E+01
(PID.TID 0000.0001) %MON dynstat_eta_mean             =  -2.5058134573193E+00
(PID.TID 0000.0001) %MON dynstat_eta_sd               =   4.9505774801341E+00
(PID.TID 0000.0001) %MON dynstat_eta_del2             =   2.0715453130589E-01
(PID.TID 0000.0001) %MON dynstat_uvel_max             =   6.5253377242236E-03
(PID.TID 0000.0001) %MON dynstat_uvel_min             =  -2.9487539494419E-02
(PID.TID 0000.0001) %MON dynstat_uvel_mean            =  -1.1400233358302E-07
(PID.TID 0000.0001) %MON dynstat_uvel_sd              =   8.5918690669061E-04
(PID.TID 0000.0001) %MON dynstat_uvel_del2            =   1.2568778563030E-06
(PID.TID 0000.0001) %MON dynstat_vvel_max             =   2.2582484698607E-02
(PID.TID 0000.0001) %MON dynstat_vvel_min             =  -9.4833649286574E-03
(PID.TID 0000.0001) %MON dynstat_vvel_mean            =   1.4829104089365E-05
(PID.TID 0000.0001) %MON dynstat_vvel_sd              =   5.0280798662823E-04
(PID.TID 0000.0001) %MON dynstat_vvel_del2            =   1.0122608798725E-06
(PID.TID 0000.0001) %MON dynstat_wvel_max             =   1.1568111086954E-03
(PID.TID 0000.0001) %MON dynstat_wvel_min             =  -1.1168838780937E-03
(PID.TID 0000.0001) %MON dynstat_wvel_mean            =   6.9366349387760E-09
(PID.TID 0000.0001) %MON dynstat_wvel_sd              =   1.9769913310216E-05
(PID.TID 0000.0001) %MON dynstat_wvel_del2            =   8.2734044096350E-08
(PID.TID 0000.0001) %MON dynstat_theta_max            =   1.2000000000000E+00
(PID.TID 0000.0001) %MON dynstat_theta_min            =  -1.0000000000000E+00
(PID.TID 0000.0001) %MON dynstat_theta_mean           =   5.6865346190434E-01
(PID.TID 0000.0001) %MON dynstat_theta_sd             =   8.6834082678783E-01
(PID.TID 0000.0001) %MON dynstat_theta_del2           =   3.2500496154937E-06
(PID.TID 0000.0001) %MON dynstat_salt_max             =   3.4700000000000E+01
(PID.TID 0000.0001) %MON dynstat_salt_min             =   3.4000000000000E+01
(PID.TID 0000.0001) %MON dynstat_salt_mean            =   3.4499075547212E+01
(PID.TID 0000.0001) %MON dynstat_salt_sd              =   2.7627440580323E-01
(PID.TID 0000.0001) %MON dynstat_salt_del2            =   1.2837742036046E-06
(PID.TID 0000.0001) %MON advcfl_uvel_max              =   2.9487539494419E-03
(PID.TID 0000.0001) %MON advcfl_vvel_max              =   2.2582484698607E-03
(PID.TID 0000.0001) %MON advcfl_wvel_max              =   5.7840555434769E-03
(PID.TID 0000.0001) %MON advcfl_W_hf_max              =   5.7840555434769E-03
(PID.TID 0000.0001) %MON pe_b_mean                    =  -8.3032706311160E-01
(PID.TID 0000.0001) %MON ke_max                       =   3.1772049055693E-04
(PID.TID 0000.0001) %MON ke_mean                      =   4.8829457902868E-07
(PID.TID 0000.0001) %MON ke_vol                       =   4.2724755149665E+12
(PID.TID 0000.0001) // =======================================================
(PID.TID 0000.0001) // End MONITOR dynamic field statistics
(PID.TID 0000.0001) // =======================================================
(PID.TID 0000.0001) // =======================================================
(PID.TID 0000.0001) // Begin OBCS MONITOR field statistics
(PID.TID 0000.0001) // =======================================================
(PID.TID 0000.0001) %MON obc_N_vVel_max               =   1.4566658530349E-05
(PID.TID 0000.0001) %MON obc_N_vVel_min               =   1.4566658530349E-05
(PID.TID 0000.0001) %MON obc_N_vVel_mean              =   1.4566658530349E-05
(PID.TID 0000.0001) %MON obc_N_vVel_sd                =  -9.8744685623518E-24
(PID.TID 0000.0001) %MON obc_N_vVel_Int               =   9.6139946300307E+02
(PID.TID 0000.0001) // =======================================================
(PID.TID 0000.0001) // End OBCS MONITOR field statistics
(PID.TID 0000.0001) // =======================================================
 cg2d: Sum(rhs),rhsMax =   4.51135845570423E+00  2.99941481562783E+02
(PID.TID 0000.0001)      cg2d_init_res =   7.58954174721327E-06
(PID.TID 0000.0001)      cg2d_iters(min,last) =      -1      82
(PID.TID 0000.0001)      cg2d_last_res =   9.97654312187637E-12
(PID.TID 0000.0001) // =======================================================
(PID.TID 0000.0001) // Begin MONITOR dynamic field statistics
(PID.TID 0000.0001) // =======================================================
(PID.TID 0000.0001) %MON time_tsnumber                =                  1147
(PID.TID 0000.0001) %MON time_secondsf                =   1.1470000000000E+05
(PID.TID 0000.0001) %MON dynstat_eta_max              =   5.7972569984871E+00
(PID.TID 0000.0001) %MON dynstat_eta_min              =  -1.4199499159872E+01
(PID.TID 0000.0001) %MON dynstat_eta_mean             =  -2.5058213686384E+00
(PID.TID 0000.0001) %MON dynstat_eta_sd               =   4.9505804717887E+00
(PID.TID 0000.0001) %MON dynstat_eta_del2             =   2.0715456626204E-01
(PID.TID 0000.0001) %MON dynstat_uvel_max             =   6.5407495514620E-03
(PID.TID 0000.0001) %MON dynstat_uvel_min             =  -2.9560957066412E-02
(PID.TID 0000.0001) %MON dynstat_uvel_mean            =  -1.1417010795448E-07
(PID.TID 0000.0001) %MON dynstat_uvel_sd              =   8.6122985609833E-04
(PID.TID 0000.0001) %MON dynstat_uvel_del2            =   1.2598755252592E-06
(PID.TID 0000.0001) %MON dynstat_vvel_max             =   2.2630112577021E-02
(PID.TID 0000.0001) %MON dynstat_vvel_min             =  -9.5083389771133E-03
(PID.TID 0000.0001) %MON dynstat_vvel_mean            =   1.4861876654267E-05
(PID.TID 0000.0001) %MON dynstat_vvel_sd              =   5.0378523964424E-04
(PID.TID 0000.0001) %MON dynstat_vvel_del2            =   1.0144017461700E-06
(PID.TID 0000.0001) %MON dynstat_wvel_max             =   1.1595512173538E-03
(PID.TID 0000.0001) %MON dynstat_wvel_min             =  -1.1194737502427E-03
(PID.TID 0000.0001) %MON dynstat_wvel_mean            =   7.0015031254663E-09
(PID.TID 0000.0001) %MON dynstat_wvel_sd              =   1.9821130343682E-05
(PID.TID 0000.0001) %MON dynstat_wvel_del2            =   8.2906109262096E-08
(PID.TID 0000.0001) %MON dynstat_theta_max            =   1.2000000000000E+00
(PID.TID 0000.0001) %MON dynstat_theta_min            =  -1.0000000000000E+00
(PID.TID 0000.0001) %MON dynstat_theta_mean           =   5.6865247112417E-01
(PID.TID 0000.0001) %MON dynstat_theta_sd             =   8.6834029175303E-01
(PID.TID 0000.0001) %MON dynstat_theta_del2           =   3.2566752367032E-06
(PID.TID 0000.0001) %MON dynstat_salt_max             =   3.4700000000000E+01
(PID.TID 0000.0001) %MON dynstat_salt_min             =   3.4000000000000E+01
(PID.TID 0000.0001) %MON dynstat_salt_mean            =   3.4499075150716E+01
(PID.TID 0000.0001) %MON dynstat_salt_sd              =   2.7627419981056E-01
(PID.TID 0000.0001) %MON dynstat_salt_del2            =   1.2864278768199E-06
(PID.TID 0000.0001) %MON advcfl_uvel_max              =   2.9560957066412E-03
(PID.TID 0000.0001) %MON advcfl_vvel_max              =   2.2630112577021E-03
(PID.TID 0000.0001) %MON advcfl_wvel_max              =   5.7977560867689E-03
(PID.TID 0000.0001) %MON advcfl_W_hf_max              =   5.7977560867689E-03
(PID.TID 0000.0001) %MON pe_b_mean                    =  -8.3032898935072E-01
(PID.TID 0000.0001) %MON ke_max                       =   3.1939960031604E-04
(PID.TID 0000.0001) %MON ke_mean                      =   4.9050941372529E-07
(PID.TID 0000.0001) %MON ke_vol                       =   4.2724754680635E+12
(PID.TID 0000.0001) // =======================================================
(PID.TID 0000.0001) // End MONITOR dynamic field statistics
(PID.TID 0000.0001) // =======================================================
(PID.TID 0000.0001) // =======================================================
(PID.TID 0000.0001) // Begin OBCS MONITOR field statistics
(PID.TID 0000.0001) // =======================================================
(PID.TID 0000.0001) %MON obc_N_vVel_max               =   1.4593579559248E-05
(PID.TID 0000.0001) %MON obc_N_vVel_min               =   1.4593579559247E-05
(PID.TID 0000.0001) %MON obc_N_vVel_mean              =   1.4593579559247E-05
(PID.TID 0000.0001) %MON obc_N_vVel_sd                =   4.5332403800278E-12
(PID.TID 0000.0001) %MON obc_N_vVel_Int               =   9.6317625091032E+02
(PID.TID 0000.0001) // =======================================================
(PID.TID 0000.0001) // End OBCS MONITOR field statistics
(PID.TID 0000.0001) // =======================================================
 cg2d: Sum(rhs),rhsMax =   4.51137165194240E+00  2.99941553387686E+02
(PID.TID 0000.0001)      cg2d_init_res =   7.62369583652321E-06
(PID.TID 0000.0001)      cg2d_iters(min,last) =      -1      82
(PID.TID 0000.0001)      cg2d_last_res =   9.99351077872706E-12
(PID.TID 0000.0001) // =======================================================
(PID.TID 0000.0001) // Begin MONITOR dynamic field statistics
(PID.TID 0000.0001) // =======================================================
(PID.TID 0000.0001) %MON time_tsnumber                =                  1148
(PID.TID 0000.0001) %MON time_secondsf                =   1.1480000000000E+05
(PID.TID 0000.0001) %MON dynstat_eta_max              =   5.7972378156314E+00
(PID.TID 0000.0001) %MON dynstat_eta_min              =  -1.4199513202727E+01
(PID.TID 0000.0001) %MON dynstat_eta_mean             =  -2.5058292985051E+00
(PID.TID 0000.0001) %MON dynstat_eta_sd               =   4.9505834726949E+00
(PID.TID 0000.0001) %MON dynstat_eta_del2             =   2.0715460129030E-01
(PID.TID 0000.0001) %MON dynstat_uvel_max             =   6.5561894655026E-03
(PID.TID 0000.0001) %MON dynstat_uvel_min             =  -2.9634494733742E-02
(PID.TID 0000.0001) %MON dynstat_uvel_mean            =  -1.1431229390173E-07
(PID.TID 0000.0001) %MON dynstat_uvel_sd              =   8.6327680338885E-04
(PID.TID 0000.0001) %MON dynstat_uvel_del2            =   1.2628808048413E-06
(PID.TID 0000.0001) %MON dynstat_vvel_max             =   2.2677779194253E-02
(PID.TID 0000.0001) %MON dynstat_vvel_min             =  -9.5333713247943E-03
(PID.TID 0000.0001) %MON dynstat_vvel_mean            =   1.4897712575351E-05
(PID.TID 0000.0001) %MON dynstat_vvel_sd              =   5.0476684755299E-04
(PID.TID 0000.0001) %MON dynstat_vvel_del2            =   1.0165606860087E-06
(PID.TID 0000.0001) %MON dynstat_wvel_max             =   1.1622946587978E-03
(PID.TID 0000.0001) %MON dynstat_wvel_min             =  -1.1220669285583E-03
(PID.TID 0000.0001) %MON dynstat_wvel_mean            =   7.0660062465667E-09
(PID.TID 0000.0001) %MON dynstat_wvel_sd              =   1.9885910984989E-05
(PID.TID 0000.0001) %MON dynstat_wvel_del2            =   8.3131042691113E-08
(PID.TID 0000.0001) %MON dynstat_theta_max            =   1.2000000000000E+00
(PID.TID 0000.0001) %MON dynstat_theta_min            =  -1.0000000000000E+00
(PID.TID 0000.0001) %MON dynstat_theta_mean           =   5.6865147860251E-01
(PID.TID 0000.0001) %MON dynstat_theta_sd             =   8.6833975575111E-01
(PID.TID 0000.0001) %MON dynstat_theta_del2           =   3.2632900489169E-06
(PID.TID 0000.0001) %MON dynstat_salt_max             =   3.4700000000000E+01
(PID.TID 0000.0001) %MON dynstat_salt_min             =   3.4000000000000E+01
(PID.TID 0000.0001) %MON dynstat_salt_mean            =   3.4499074753520E+01
(PID.TID 0000.0001) %MON dynstat_salt_sd              =   2.7627399344718E-01
(PID.TID 0000.0001) %MON dynstat_salt_del2            =   1.2890794827409E-06
(PID.TID 0000.0001) %MON advcfl_uvel_max              =   2.9634494733742E-03
(PID.TID 0000.0001) %MON advcfl_vvel_max              =   2.2677779194253E-03
(PID.TID 0000.0001) %MON advcfl_wvel_max              =   5.8114732939891E-03
(PID.TID 0000.0001) %MON advcfl_W_hf_max              =   5.8114732939891E-03
(PID.TID 0000.0001) %MON pe_b_mean                    =  -8.3033091970773E-01
(PID.TID 0000.0001) %MON ke_max                       =   3.2108633363414E-04
(PID.TID 0000.0001) %MON ke_mean                      =   4.9273492156994E-07
(PID.TID 0000.0001) %MON ke_vol                       =   4.2724754210703E+12
(PID.TID 0000.0001) // =======================================================
(PID.TID 0000.0001) // End MONITOR dynamic field statistics
(PID.TID 0000.0001) // =======================================================
(PID.TID 0000.0001) // =======================================================
(PID.TID 0000.0001) // Begin OBCS MONITOR field statistics
(PID.TID 0000.0001) // =======================================================
(PID.TID 0000.0001) %MON obc_N_vVel_max               =   1.4623530140968E-05
(PID.TID 0000.0001) %MON obc_N_vVel_min               =   1.4623530140968E-05
(PID.TID 0000.0001) %MON obc_N_vVel_mean              =   1.4623530140968E-05
(PID.TID 0000.0001) %MON obc_N_vVel_sd                =  -2.2101231991651E-23
(PID.TID 0000.0001) %MON obc_N_vVel_Int               =   9.6515298930390E+02
(PID.TID 0000.0001) // =======================================================
(PID.TID 0000.0001) // End OBCS MONITOR field statistics
(PID.TID 0000.0001) // =======================================================
 cg2d: Sum(rhs),rhsMax =   4.51138487897664E+00  2.99941625725501E+02
(PID.TID 0000.0001)      cg2d_init_res =   7.65851268641031E-06
(PID.TID 0000.0001)      cg2d_iters(min,last) =      -1      83
(PID.TID 0000.0001)      cg2d_last_res =   8.69342778130317E-12
(PID.TID 0000.0001) // =======================================================
(PID.TID 0000.0001) // Begin MONITOR dynamic field statistics
(PID.TID 0000.0001) // =======================================================
(PID.TID 0000.0001) %MON time_tsnumber                =                  1149
(PID.TID 0000.0001) %MON time_secondsf                =   1.1490000000000E+05
(PID.TID 0000.0001) %MON dynstat_eta_max              =   5.7972185811727E+00
(PID.TID 0000.0001) %MON dynstat_eta_min              =  -1.4199527294455E+01
(PID.TID 0000.0001) %MON dynstat_eta_mean             =  -2.5058372497661E+00
(PID.TID 0000.0001) %MON dynstat_eta_sd               =   4.9505864833526E+00
(PID.TID 0000.0001) %MON dynstat_eta_del2             =   2.0715463639122E-01
(PID.TID 0000.0001) %MON dynstat_uvel_max             =   6.5716575478270E-03
(PID.TID 0000.0001) %MON dynstat_uvel_min             =  -2.9708152546167E-02
(PID.TID 0000.0001) %MON dynstat_uvel_mean            =  -1.1442592766608E-07
(PID.TID 0000.0001) %MON dynstat_uvel_sd              =   8.6532775703681E-04
(PID.TID 0000.0001) %MON dynstat_uvel_del2            =   1.2658937238048E-06
(PID.TID 0000.0001) %MON dynstat_vvel_max             =   2.2725484253965E-02
(PID.TID 0000.0001) %MON dynstat_vvel_min             =  -9.5584621838398E-03
(PID.TID 0000.0001) %MON dynstat_vvel_mean            =   1.4936080796340E-05
(PID.TID 0000.0001) %MON dynstat_vvel_sd              =   5.0575235422300E-04
(PID.TID 0000.0001) %MON dynstat_vvel_del2            =   1.0187346091807E-06
(PID.TID 0000.0001) %MON dynstat_wvel_max             =   1.1650414269043E-03
(PID.TID 0000.0001) %MON dynstat_wvel_min             =  -1.1246633997688E-03
(PID.TID 0000.0001) %MON dynstat_wvel_mean            =   7.1292408239254E-09
(PID.TID 0000.0001) %MON dynstat_wvel_sd              =   1.9961979746302E-05
(PID.TID 0000.0001) %MON dynstat_wvel_del2            =   8.3403181472443E-08
(PID.TID 0000.0001) %MON dynstat_theta_max            =   1.2000000000000E+00
(PID.TID 0000.0001) %MON dynstat_theta_min            =  -1.0000000000000E+00
(PID.TID 0000.0001) %MON dynstat_theta_mean           =   5.6865048433829E-01
(PID.TID 0000.0001) %MON dynstat_theta_sd             =   8.6833921877680E-01
(PID.TID 0000.0001) %MON dynstat_theta_del2           =   3.2698969428285E-06
(PID.TID 0000.0001) %MON dynstat_salt_max             =   3.4700000000000E+01
(PID.TID 0000.0001) %MON dynstat_salt_min             =   3.4000000000000E+01
(PID.TID 0000.0001) %MON dynstat_salt_mean            =   3.4499074355626E+01
(PID.TID 0000.0001) %MON dynstat_salt_sd              =   2.7627378671137E-01
(PID.TID 0000.0001) %MON dynstat_salt_del2            =   1.2917299758568E-06
(PID.TID 0000.0001) %MON advcfl_uvel_max              =   2.9708152546167E-03
(PID.TID 0000.0001) %MON advcfl_vvel_max              =   2.2725484253965E-03
(PID.TID 0000.0001) %MON advcfl_wvel_max              =   5.8252071345217E-03
(PID.TID 0000.0001) %MON advcfl_W_hf_max              =   5.8252071345217E-03
(PID.TID 0000.0001) %MON pe_b_mean                    =  -8.3033285478107E-01
(PID.TID 0000.0001) %MON ke_max                       =   3.2278071869194E-04
(PID.TID 0000.0001) %MON ke_mean                      =   4.9497090841481E-07
(PID.TID 0000.0001) %MON ke_vol                       =   4.2724753739669E+12
(PID.TID 0000.0001) // =======================================================
(PID.TID 0000.0001) // End MONITOR dynamic field statistics
(PID.TID 0000.0001) // =======================================================
(PID.TID 0000.0001) // =======================================================
(PID.TID 0000.0001) // Begin OBCS MONITOR field statistics
(PID.TID 0000.0001) // =======================================================
(PID.TID 0000.0001) %MON obc_N_vVel_max               =   1.4656061293297E-05
(PID.TID 0000.0001) %MON obc_N_vVel_min               =   1.4656061293297E-05
(PID.TID 0000.0001) %MON obc_N_vVel_mean              =   1.4656061293297E-05
(PID.TID 0000.0001) %MON obc_N_vVel_sd                =  -6.3072521707168E-24
(PID.TID 0000.0001) %MON obc_N_vVel_Int               =   9.6730004535762E+02
(PID.TID 0000.0001) // =======================================================
(PID.TID 0000.0001) // End OBCS MONITOR field statistics
(PID.TID 0000.0001) // =======================================================
 cg2d: Sum(rhs),rhsMax =   4.51139814052877E+00  2.99941698605318E+02
(PID.TID 0000.0001)      cg2d_init_res =   7.69346166646271E-06
(PID.TID 0000.0001)      cg2d_iters(min,last) =      -1      83
(PID.TID 0000.0001)      cg2d_last_res =   8.70653753911701E-12
(PID.TID 0000.0001) // =======================================================
(PID.TID 0000.0001) // Begin MONITOR dynamic field statistics
(PID.TID 0000.0001) // =======================================================
(PID.TID 0000.0001) %MON time_tsnumber                =                  1150
(PID.TID 0000.0001) %MON time_secondsf                =   1.1500000000000E+05
(PID.TID 0000.0001) %MON dynstat_eta_max              =   5.7971992927262E+00
(PID.TID 0000.0001) %MON dynstat_eta_min              =  -1.4199541438031E+01
(PID.TID 0000.0001) %MON dynstat_eta_mean             =  -2.5058452247316E+00
(PID.TID 0000.0001) %MON dynstat_eta_sd               =   4.9505895040509E+00
(PID.TID 0000.0001) %MON dynstat_eta_del2             =   2.0715467156445E-01
(PID.TID 0000.0001) %MON dynstat_uvel_max             =   6.5871538887876E-03
(PID.TID 0000.0001) %MON dynstat_uvel_min             =  -2.9781930544829E-02
(PID.TID 0000.0001) %MON dynstat_uvel_mean            =  -1.1450792484189E-07
(PID.TID 0000.0001) %MON dynstat_uvel_sd              =   8.6738272560431E-04
(PID.TID 0000.0001) %MON dynstat_uvel_del2            =   1.2689143136172E-06
(PID.TID 0000.0001) %MON dynstat_vvel_max             =   2.2773227437124E-02
(PID.TID 0000.0001) %MON dynstat_vvel_min             =  -9.5836117830856E-03
(PID.TID 0000.0001) %MON dynstat_vvel_mean            =   1.4976416997140E-05
(PID.TID 0000.0001) %MON dynstat_vvel_sd              =   5.0674118412419E-04
(PID.TID 0000.0001) %MON dynstat_vvel_del2            =   1.0209197323807E-06
(PID.TID 0000.0001) %MON dynstat_wvel_max             =   1.1677915115620E-03
(PID.TID 0000.0001) %MON dynstat_wvel_min             =  -1.1272631421364E-03
(PID.TID 0000.0001) %MON dynstat_wvel_mean            =   7.1903132228300E-09
(PID.TID 0000.0001) %MON dynstat_wvel_sd              =   2.0046438638546E-05
(PID.TID 0000.0001) %MON dynstat_wvel_del2            =   8.3713722213911E-08
(PID.TID 0000.0001) %MON dynstat_theta_max            =   1.2000000000000E+00
(PID.TID 0000.0001) %MON dynstat_theta_min            =  -1.0000000000000E+00
(PID.TID 0000.0001) %MON dynstat_theta_mean           =   5.6864948833031E-01
(PID.TID 0000.0001) %MON dynstat_theta_sd             =   8.6833868082655E-01
(PID.TID 0000.0001) %MON dynstat_theta_del2           =   3.2764998051118E-06
(PID.TID 0000.0001) %MON dynstat_salt_max             =   3.4700000000000E+01
(PID.TID 0000.0001) %MON dynstat_salt_min             =   3.4000000000000E+01
(PID.TID 0000.0001) %MON dynstat_salt_mean            =   3.4499073957031E+01
(PID.TID 0000.0001) %MON dynstat_salt_sd              =   2.7627357960200E-01
(PID.TID 0000.0001) %MON dynstat_salt_del2            =   1.2943802282963E-06
(PID.TID 0000.0001) %MON advcfl_uvel_max              =   2.9781930544829E-03
(PID.TID 0000.0001) %MON advcfl_vvel_max              =   2.2773227437124E-03
(PID.TID 0000.0001) %MON advcfl_wvel_max              =   5.8389575578098E-03
(PID.TID 0000.0001) %MON advcfl_W_hf_max              =   5.8389575578098E-03
(PID.TID 0000.0001) %MON pe_b_mean                    =  -8.3033479502319E-01
(PID.TID 0000.0001) %MON ke_max                       =   3.2448278362094E-04
(PID.TID 0000.0001) %MON ke_mean                      =   4.9721711750094E-07
(PID.TID 0000.0001) %MON ke_vol                       =   4.2724753267364E+12
(PID.TID 0000.0001) // =======================================================
(PID.TID 0000.0001) // End MONITOR dynamic field statistics
(PID.TID 0000.0001) // =======================================================
(PID.TID 0000.0001) // =======================================================
(PID.TID 0000.0001) // Begin OBCS MONITOR field statistics
(PID.TID 0000.0001) // =======================================================
(PID.TID 0000.0001) %MON obc_N_vVel_max               =   1.4690690350761E-05
(PID.TID 0000.0001) %MON obc_N_vVel_min               =   1.4690690350761E-05
(PID.TID 0000.0001) %MON obc_N_vVel_mean              =   1.4690690350761E-05
(PID.TID 0000.0001) %MON obc_N_vVel_sd                =  -5.7902642878712E-24
(PID.TID 0000.0001) %MON obc_N_vVel_Int               =   9.6958556315024E+02
(PID.TID 0000.0001) // =======================================================
(PID.TID 0000.0001) // End OBCS MONITOR field statistics
(PID.TID 0000.0001) // =======================================================
 cg2d: Sum(rhs),rhsMax =   4.51141143945901E+00  2.99941772045575E+02
(PID.TID 0000.0001)      cg2d_init_res =   7.72823262551717E-06
(PID.TID 0000.0001)      cg2d_iters(min,last) =      -1      83
(PID.TID 0000.0001)      cg2d_last_res =   8.71761787152161E-12
(PID.TID 0000.0001) // =======================================================
(PID.TID 0000.0001) // Begin MONITOR dynamic field statistics
(PID.TID 0000.0001) // =======================================================
(PID.TID 0000.0001) %MON time_tsnumber                =                  1151
(PID.TID 0000.0001) %MON time_secondsf                =   1.1510000000000E+05
(PID.TID 0000.0001) %MON dynstat_eta_max              =   5.7971799471251E+00
(PID.TID 0000.0001) %MON dynstat_eta_min              =  -1.4199555635341E+01
(PID.TID 0000.0001) %MON dynstat_eta_mean             =  -2.5058532251445E+00
(PID.TID 0000.0001) %MON dynstat_eta_sd               =   4.9505925348808E+00
(PID.TID 0000.0001) %MON dynstat_eta_del2             =   2.0715470680997E-01
(PID.TID 0000.0001) %MON dynstat_uvel_max             =   6.6026785704274E-03
(PID.TID 0000.0001) %MON dynstat_uvel_min             =  -2.9855828782456E-02
(PID.TID 0000.0001) %MON dynstat_uvel_mean            =  -1.1455654294806E-07
(PID.TID 0000.0001) %MON dynstat_uvel_sd              =   8.6944171761775E-04
(PID.TID 0000.0001) %MON dynstat_uvel_del2            =   1.2719426033520E-06
(PID.TID 0000.0001) %MON dynstat_vvel_max             =   2.2821008442320E-02
(PID.TID 0000.0001) %MON dynstat_vvel_min             =  -9.6088203401052E-03
(PID.TID 0000.0001) %MON dynstat_vvel_mean            =   1.5018131926476E-05
(PID.TID 0000.0001) %MON dynstat_vvel_sd              =   5.0773267696477E-04
(PID.TID 0000.0001) %MON dynstat_vvel_del2            =   1.0231117861703E-06
(PID.TID 0000.0001) %MON dynstat_wvel_max             =   1.1705449084456E-03
(PID.TID 0000.0001) %MON dynstat_wvel_min             =  -1.1298661458994E-03
(PID.TID 0000.0001) %MON dynstat_wvel_mean            =   7.2483877689577E-09
(PID.TID 0000.0001) %MON dynstat_wvel_sd              =   2.0135952783700E-05
(PID.TID 0000.0001) %MON dynstat_wvel_del2            =   8.4051232951710E-08
(PID.TID 0000.0001) %MON dynstat_theta_max            =   1.2000000000000E+00
(PID.TID 0000.0001) %MON dynstat_theta_min            =  -1.0000000000000E+00
(PID.TID 0000.0001) %MON dynstat_theta_mean           =   5.6864849057725E-01
(PID.TID 0000.0001) %MON dynstat_theta_sd             =   8.6833814189792E-01
(PID.TID 0000.0001) %MON dynstat_theta_del2           =   3.2831036826981E-06
(PID.TID 0000.0001) %MON dynstat_salt_max             =   3.4700000000000E+01
(PID.TID 0000.0001) %MON dynstat_salt_min             =   3.4000000000000E+01
(PID.TID 0000.0001) %MON dynstat_salt_mean            =   3.4499073557735E+01
(PID.TID 0000.0001) %MON dynstat_salt_sd              =   2.7627337211820E-01
(PID.TID 0000.0001) %MON dynstat_salt_del2            =   1.2970313897136E-06
(PID.TID 0000.0001) %MON advcfl_uvel_max              =   2.9855828782456E-03
(PID.TID 0000.0001) %MON advcfl_vvel_max              =   2.2821008442320E-03
(PID.TID 0000.0001) %MON advcfl_wvel_max              =   5.8527245422278E-03
(PID.TID 0000.0001) %MON advcfl_W_hf_max              =   5.8527245422278E-03
(PID.TID 0000.0001) %MON pe_b_mean                    =  -8.3033674073523E-01
(PID.TID 0000.0001) %MON ke_max                       =   3.2619255683688E-04
(PID.TID 0000.0001) %MON ke_mean                      =   4.9947324643631E-07
(PID.TID 0000.0001) %MON ke_vol                       =   4.2724752793651E+12
(PID.TID 0000.0001) // =======================================================
(PID.TID 0000.0001) // End MONITOR dynamic field statistics
(PID.TID 0000.0001) // =======================================================
(PID.TID 0000.0001) // =======================================================
(PID.TID 0000.0001) // Begin OBCS MONITOR field statistics
(PID.TID 0000.0001) // =======================================================
(PID.TID 0000.0001) %MON obc_N_vVel_max               =   1.4726906290748E-05
(PID.TID 0000.0001) %MON obc_N_vVel_min               =   1.4726906290748E-05
(PID.TID 0000.0001) %MON obc_N_vVel_mean              =   1.4726906290748E-05
(PID.TID 0000.0001) %MON obc_N_vVel_sd                =   2.6172675537103E-12
(PID.TID 0000.0001) %MON obc_N_vVel_Int               =   9.7197581518934E+02
(PID.TID 0000.0001) // =======================================================
(PID.TID 0000.0001) // End OBCS MONITOR field statistics
(PID.TID 0000.0001) // =======================================================
 cg2d: Sum(rhs),rhsMax =   4.51142477773168E+00  2.99941846053978E+02
(PID.TID 0000.0001)      cg2d_init_res =   7.76225089860972E-06
(PID.TID 0000.0001)      cg2d_iters(min,last) =      -1      83
(PID.TID 0000.0001)      cg2d_last_res =   8.72690419330275E-12
(PID.TID 0000.0001) // =======================================================
(PID.TID 0000.0001) // Begin MONITOR dynamic field statistics
(PID.TID 0000.0001) // =======================================================
(PID.TID 0000.0001) %MON time_tsnumber                =                  1152
(PID.TID 0000.0001) %MON time_secondsf                =   1.1520000000000E+05
(PID.TID 0000.0001) %MON dynstat_eta_max              =   5.7971605429505E+00
(PID.TID 0000.0001) %MON dynstat_eta_min              =  -1.4199569887252E+01
(PID.TID 0000.0001) %MON dynstat_eta_mean             =  -2.5058612521602E+00
(PID.TID 0000.0001) %MON dynstat_eta_sd               =   4.9505955757233E+00
(PID.TID 0000.0001) %MON dynstat_eta_del2             =   2.0715474212738E-01
(PID.TID 0000.0001) %MON dynstat_uvel_max             =   6.6182316774821E-03
(PID.TID 0000.0001) %MON dynstat_uvel_min             =  -2.9929847307930E-02
(PID.TID 0000.0001) %MON dynstat_uvel_mean            =  -1.1457093591742E-07
(PID.TID 0000.0001) %MON dynstat_uvel_sd              =   8.7150474157675E-04
(PID.TID 0000.0001) %MON dynstat_uvel_del2            =   1.2749786205833E-06
(PID.TID 0000.0001) %MON dynstat_vvel_max             =   2.2868826949914E-02
(PID.TID 0000.0001) %MON dynstat_vvel_min             =  -9.6340880865924E-03
(PID.TID 0000.0001) %MON dynstat_vvel_mean            =   1.5060619818629E-05
(PID.TID 0000.0001) %MON dynstat_vvel_sd              =   5.0872612642942E-04
(PID.TID 0000.0001) %MON dynstat_vvel_del2            =   1.0253062541040E-06
(PID.TID 0000.0001) %MON dynstat_wvel_max             =   1.1733016093303E-03
(PID.TID 0000.0001) %MON dynstat_wvel_min             =  -1.1324723927234E-03
(PID.TID 0000.0001) %MON dynstat_wvel_mean            =   7.3026469781183E-09
(PID.TID 0000.0001) %MON dynstat_wvel_sd              =   2.0226958265425E-05
(PID.TID 0000.0001) %MON dynstat_wvel_del2            =   8.4402365445411E-08
(PID.TID 0000.0001) %MON dynstat_theta_max            =   1.2000000000000E+00
(PID.TID 0000.0001) %MON dynstat_theta_min            =  -1.0000000000000E+00
(PID.TID 0000.0001) %MON dynstat_theta_mean           =   5.6864749107762E-01
(PID.TID 0000.0001) %MON dynstat_theta_sd             =   8.6833760199065E-01
(PID.TID 0000.0001) %MON dynstat_theta_del2           =   3.2897134572828E-06
(PID.TID 0000.0001) %MON dynstat_salt_max             =   3.4700000000000E+01
(PID.TID 0000.0001) %MON dynstat_salt_min             =   3.4000000000000E+01
(PID.TID 0000.0001) %MON dynstat_salt_mean            =   3.4499073157738E+01
(PID.TID 0000.0001) %MON dynstat_salt_sd              =   2.7627316426003E-01
(PID.TID 0000.0001) %MON dynstat_salt_del2            =   1.2996850542093E-06
(PID.TID 0000.0001) %MON advcfl_uvel_max              =   2.9929847307930E-03
(PID.TID 0000.0001) %MON advcfl_vvel_max              =   2.2868826949914E-03
(PID.TID 0000.0001) %MON advcfl_wvel_max              =   5.8665080466514E-03
(PID.TID 0000.0001) %MON advcfl_W_hf_max              =   5.8665080466514E-03
(PID.TID 0000.0001) %MON pe_b_mean                    =  -8.3033869206304E-01
(PID.TID 0000.0001) %MON ke_max                       =   3.2791006681577E-04
(PID.TID 0000.0001) %MON ke_mean                      =   5.0173896658175E-07
(PID.TID 0000.0001) %MON ke_vol                       =   4.2724752318426E+12
(PID.TID 0000.0001) // =======================================================
(PID.TID 0000.0001) // End MONITOR dynamic field statistics
(PID.TID 0000.0001) // =======================================================
(PID.TID 0000.0001) // =======================================================
(PID.TID 0000.0001) // Begin OBCS MONITOR field statistics
(PID.TID 0000.0001) // =======================================================
(PID.TID 0000.0001) %MON obc_N_vVel_max               =   1.4764180366911E-05
(PID.TID 0000.0001) %MON obc_N_vVel_min               =   1.4764180366911E-05
(PID.TID 0000.0001) %MON obc_N_vVel_mean              =   1.4764180366911E-05
(PID.TID 0000.0001) %MON obc_N_vVel_sd                =   3.6237400878484E-12
(PID.TID 0000.0001) %MON obc_N_vVel_Int               =   9.7443590421612E+02
(PID.TID 0000.0001) // =======================================================
(PID.TID 0000.0001) // End OBCS MONITOR field statistics
(PID.TID 0000.0001) // =======================================================
 cg2d: Sum(rhs),rhsMax =   4.51143815637661E+00  2.99941920628143E+02
(PID.TID 0000.0001)      cg2d_init_res =   7.79504084877522E-06
(PID.TID 0000.0001)      cg2d_iters(min,last) =      -1      83
(PID.TID 0000.0001)      cg2d_last_res =   8.73449789211905E-12
(PID.TID 0000.0001) // =======================================================
(PID.TID 0000.0001) // Begin MONITOR dynamic field statistics
(PID.TID 0000.0001) // =======================================================
(PID.TID 0000.0001) %MON time_tsnumber                =                  1153
(PID.TID 0000.0001) %MON time_secondsf                =   1.1530000000000E+05
(PID.TID 0000.0001) %MON dynstat_eta_max              =   5.7971410799175E+00
(PID.TID 0000.0001) %MON dynstat_eta_min              =  -1.4199584193539E+01
(PID.TID 0000.0001) %MON dynstat_eta_mean             =  -2.5058693063309E+00
(PID.TID 0000.0001) %MON dynstat_eta_sd               =   4.9505986262632E+00
(PID.TID 0000.0001) %MON dynstat_eta_del2             =   2.0715477751653E-01
(PID.TID 0000.0001) %MON dynstat_uvel_max             =   6.6338132950605E-03
(PID.TID 0000.0001) %MON dynstat_uvel_min             =  -3.0003986172906E-02
(PID.TID 0000.0001) %MON dynstat_uvel_mean            =  -1.1455112659551E-07
(PID.TID 0000.0001) %MON dynstat_uvel_sd              =   8.7357180588801E-04
(PID.TID 0000.0001) %MON dynstat_uvel_del2            =   1.2780223952113E-06
(PID.TID 0000.0001) %MON dynstat_vvel_max             =   2.2916682641378E-02
(PID.TID 0000.0001) %MON dynstat_vvel_min             =  -9.6594152533473E-03
(PID.TID 0000.0001) %MON dynstat_vvel_mean            =   1.5103266828961E-05
(PID.TID 0000.0001) %MON dynstat_vvel_sd              =   5.0972082101795E-04
(PID.TID 0000.0001) %MON dynstat_vvel_del2            =   1.0274986291892E-06
(PID.TID 0000.0001) %MON dynstat_wvel_max             =   1.1760616068085E-03
(PID.TID 0000.0001) %MON dynstat_wvel_min             =  -1.1350818662900E-03
(PID.TID 0000.0001) %MON dynstat_wvel_mean            =   7.3523450242315E-09
(PID.TID 0000.0001) %MON dynstat_wvel_sd              =   2.0315878273967E-05
(PID.TID 0000.0001) %MON dynstat_wvel_del2            =   8.4752716367803E-08
(PID.TID 0000.0001) %MON dynstat_theta_max            =   1.2000000000000E+00
(PID.TID 0000.0001) %MON dynstat_theta_min            =  -1.0000000000000E+00
(PID.TID 0000.0001) %MON dynstat_theta_mean           =   5.6864648982967E-01
(PID.TID 0000.0001) %MON dynstat_theta_sd             =   8.6833706110315E-01
(PID.TID 0000.0001) %MON dynstat_theta_del2           =   3.2963335516059E-06
(PID.TID 0000.0001) %MON dynstat_salt_max             =   3.4700000000000E+01
(PID.TID 0000.0001) %MON dynstat_salt_min             =   3.4000000000000E+01
(PID.TID 0000.0001) %MON dynstat_salt_mean            =   3.4499072757039E+01
(PID.TID 0000.0001) %MON dynstat_salt_sd              =   2.7627295602701E-01
(PID.TID 0000.0001) %MON dynstat_salt_del2            =   1.3023429092588E-06
(PID.TID 0000.0001) %MON advcfl_uvel_max              =   3.0003986172906E-03
(PID.TID 0000.0001) %MON advcfl_vvel_max              =   2.2916682641378E-03
(PID.TID 0000.0001) %MON advcfl_wvel_max              =   5.8803080340425E-03
(PID.TID 0000.0001) %MON advcfl_W_hf_max              =   5.8803080340425E-03
(PID.TID 0000.0001) %MON pe_b_mean                    =  -8.3034064899577E-01
(PID.TID 0000.0001) %MON ke_max                       =   3.2963534217372E-04
(PID.TID 0000.0001) %MON ke_mean                      =   5.0401394368022E-07
(PID.TID 0000.0001) %MON ke_vol                       =   4.2724751841622E+12
(PID.TID 0000.0001) // =======================================================
(PID.TID 0000.0001) // End MONITOR dynamic field statistics
(PID.TID 0000.0001) // =======================================================
(PID.TID 0000.0001) // =======================================================
(PID.TID 0000.0001) // Begin OBCS MONITOR field statistics
(PID.TID 0000.0001) // =======================================================
(PID.TID 0000.0001) %MON obc_N_vVel_max               =   1.4801970060713E-05
(PID.TID 0000.0001) %MON obc_N_vVel_min               =   1.4801970060713E-05
(PID.TID 0000.0001) %MON obc_N_vVel_mean              =   1.4801970060713E-05
(PID.TID 0000.0001) %MON obc_N_vVel_sd                =   1.7975467359113E-12
(PID.TID 0000.0001) %MON obc_N_vVel_Int               =   9.7693002400706E+02
(PID.TID 0000.0001) // =======================================================
(PID.TID 0000.0001) // End OBCS MONITOR field statistics
(PID.TID 0000.0001) // =======================================================
 cg2d: Sum(rhs),rhsMax =   4.51145157548181E+00  2.99941995755468E+02
(PID.TID 0000.0001)      cg2d_init_res =   7.82614624536002E-06
(PID.TID 0000.0001)      cg2d_iters(min,last) =      -1      83
(PID.TID 0000.0001)      cg2d_last_res =   8.74038691781079E-12
(PID.TID 0000.0001) // =======================================================
(PID.TID 0000.0001) // Begin MONITOR dynamic field statistics
(PID.TID 0000.0001) // =======================================================
(PID.TID 0000.0001) %MON time_tsnumber                =                  1154
(PID.TID 0000.0001) %MON time_secondsf                =   1.1540000000000E+05
(PID.TID 0000.0001) %MON dynstat_eta_max              =   5.7971215588598E+00
(PID.TID 0000.0001) %MON dynstat_eta_min              =  -1.4199598552917E+01
(PID.TID 0000.0001) %MON dynstat_eta_mean             =  -2.5058773876003E+00
(PID.TID 0000.0001) %MON dynstat_eta_sd               =   4.9506016859885E+00
(PID.TID 0000.0001) %MON dynstat_eta_del2             =   2.0715481297720E-01
(PID.TID 0000.0001) %MON dynstat_uvel_max             =   6.6494235063281E-03
(PID.TID 0000.0001) %MON dynstat_uvel_min             =  -3.0078245432144E-02
(PID.TID 0000.0001) %MON dynstat_uvel_mean            =  -1.1449791382250E-07
(PID.TID 0000.0001) %MON dynstat_uvel_sd              =   8.7564291878661E-04
(PID.TID 0000.0001) %MON dynstat_uvel_del2            =   1.2810739528015E-06
(PID.TID 0000.0001) %MON dynstat_vvel_max             =   2.2964575197711E-02
(PID.TID 0000.0001) %MON dynstat_vvel_min             =  -9.6848020514528E-03
(PID.TID 0000.0001) %MON dynstat_vvel_mean            =   1.5145459906658E-05
(PID.TID 0000.0001) %MON dynstat_vvel_sd              =   5.1071608540428E-04
(PID.TID 0000.0001) %MON dynstat_vvel_del2            =   1.0296846931703E-06
(PID.TID 0000.0001) %MON dynstat_wvel_max             =   1.1788248934094E-03
(PID.TID 0000.0001) %MON dynstat_wvel_min             =  -1.1376945524496E-03
(PID.TID 0000.0001) %MON dynstat_wvel_mean            =   7.3968011846992E-09
(PID.TID 0000.0001) %MON dynstat_wvel_sd              =   2.0399333453237E-05
(PID.TID 0000.0001) %MON dynstat_wvel_del2            =   8.5087771579240E-08
(PID.TID 0000.0001) %MON dynstat_theta_max            =   1.2000000000000E+00
(PID.TID 0000.0001) %MON dynstat_theta_min            =  -1.0000000000000E+00
(PID.TID 0000.0001) %MON dynstat_theta_mean           =   5.6864548683127E-01
(PID.TID 0000.0001) %MON dynstat_theta_sd             =   8.6833651923779E-01
(PID.TID 0000.0001) %MON dynstat_theta_del2           =   3.3029699708228E-06
(PID.TID 0000.0001) %MON dynstat_salt_max             =   3.4700000000000E+01
(PID.TID 0000.0001) %MON dynstat_salt_min             =   3.4000000000000E+01
(PID.TID 0000.0001) %MON dynstat_salt_mean            =   3.4499072355636E+01
(PID.TID 0000.0001) %MON dynstat_salt_sd              =   2.7627274741986E-01
(PID.TID 0000.0001) %MON dynstat_salt_del2            =   1.3050060889359E-06
(PID.TID 0000.0001) %MON advcfl_uvel_max              =   3.0078245432144E-03
(PID.TID 0000.0001) %MON advcfl_vvel_max              =   2.2964575197711E-03
(PID.TID 0000.0001) %MON advcfl_wvel_max              =   5.8941244670472E-03
(PID.TID 0000.0001) %MON advcfl_W_hf_max              =   5.8941244670472E-03
(PID.TID 0000.0001) %MON pe_b_mean                    =  -8.3034261136651E-01
(PID.TID 0000.0001) %MON ke_max                       =   3.3136841168666E-04
(PID.TID 0000.0001) %MON ke_mean                      =   5.0629785900228E-07
(PID.TID 0000.0001) %MON ke_vol                       =   4.2724751363204E+12
(PID.TID 0000.0001) // =======================================================
(PID.TID 0000.0001) // End MONITOR dynamic field statistics
(PID.TID 0000.0001) // =======================================================
(PID.TID 0000.0001) // =======================================================
(PID.TID 0000.0001) // Begin OBCS MONITOR field statistics
(PID.TID 0000.0001) // =======================================================
(PID.TID 0000.0001) %MON obc_N_vVel_max               =   1.4839728754907E-05
(PID.TID 0000.0001) %MON obc_N_vVel_min               =   1.4839728754907E-05
(PID.TID 0000.0001) %MON obc_N_vVel_mean              =   1.4839728754907E-05
(PID.TID 0000.0001) %MON obc_N_vVel_sd                =  -1.6155871338926E-23
(PID.TID 0000.0001) %MON obc_N_vVel_Int               =   9.7942209782388E+02
(PID.TID 0000.0001) // =======================================================
(PID.TID 0000.0001) // End OBCS MONITOR field statistics
(PID.TID 0000.0001) // =======================================================
 cg2d: Sum(rhs),rhsMax =   4.51146503419364E+00  2.99942071413886E+02
(PID.TID 0000.0001)      cg2d_init_res =   7.85510581739757E-06
(PID.TID 0000.0001)      cg2d_iters(min,last) =      -1      83
(PID.TID 0000.0001)      cg2d_last_res =   8.74470523547032E-12
(PID.TID 0000.0001) // =======================================================
(PID.TID 0000.0001) // Begin MONITOR dynamic field statistics
(PID.TID 0000.0001) // =======================================================
(PID.TID 0000.0001) %MON time_tsnumber                =                  1155
(PID.TID 0000.0001) %MON time_secondsf                =   1.1550000000000E+05
(PID.TID 0000.0001) %MON dynstat_eta_max              =   5.7971019817278E+00
(PID.TID 0000.0001) %MON dynstat_eta_min              =  -1.4199612963066E+01
(PID.TID 0000.0001) %MON dynstat_eta_mean             =  -2.5058854953099E+00
(PID.TID 0000.0001) %MON dynstat_eta_sd               =   4.9506047541882E+00
(PID.TID 0000.0001) %MON dynstat_eta_del2             =   2.0715484850819E-01
(PID.TID 0000.0001) %MON dynstat_uvel_max             =   6.6650623918321E-03
(PID.TID 0000.0001) %MON dynstat_uvel_min             =  -3.0152625143910E-02
(PID.TID 0000.0001) %MON dynstat_uvel_mean            =  -1.1441273587861E-07
(PID.TID 0000.0001) %MON dynstat_uvel_sd              =   8.7771808841021E-04
(PID.TID 0000.0001) %MON dynstat_uvel_del2            =   1.2841333176852E-06
(PID.TID 0000.0001) %MON dynstat_vvel_max             =   2.3012504301191E-02
(PID.TID 0000.0001) %MON dynstat_vvel_min             =  -9.7102487089966E-03
(PID.TID 0000.0001) %MON dynstat_vvel_mean            =   1.5186595580442E-05
(PID.TID 0000.0001) %MON dynstat_vvel_sd              =   5.1171131950159E-04
(PID.TID 0000.0001) %MON dynstat_vvel_del2            =   1.0318607841714E-06
(PID.TID 0000.0001) %MON dynstat_wvel_max             =   1.1815914615726E-03
(PID.TID 0000.0001) %MON dynstat_wvel_min             =  -1.1403104348515E-03
(PID.TID 0000.0001) %MON dynstat_wvel_mean            =   7.4354135826858E-09
(PID.TID 0000.0001) %MON dynstat_wvel_sd              =   2.0474334539548E-05
(PID.TID 0000.0001) %MON dynstat_wvel_del2            =   8.5393863981641E-08
(PID.TID 0000.0001) %MON dynstat_theta_max            =   1.2000000000000E+00
(PID.TID 0000.0001) %MON dynstat_theta_min            =  -1.0000000000000E+00
(PID.TID 0000.0001) %MON dynstat_theta_mean           =   5.6864448208024E-01
(PID.TID 0000.0001) %MON dynstat_theta_sd             =   8.6833597639738E-01
(PID.TID 0000.0001) %MON dynstat_theta_del2           =   3.3096275038429E-06
(PID.TID 0000.0001) %MON dynstat_salt_max             =   3.4700000000000E+01
(PID.TID 0000.0001) %MON dynstat_salt_min             =   3.4000000000000E+01
(PID.TID 0000.0001) %MON dynstat_salt_mean            =   3.4499071953530E+01
(PID.TID 0000.0001) %MON dynstat_salt_sd              =   2.7627253843953E-01
(PID.TID 0000.0001) %MON dynstat_salt_del2            =   1.3076758914015E-06
(PID.TID 0000.0001) %MON advcfl_uvel_max              =   3.0152625143910E-03
(PID.TID 0000.0001) %MON advcfl_vvel_max              =   2.3012504301191E-03
(PID.TID 0000.0001) %MON advcfl_wvel_max              =   5.9079573078629E-03
(PID.TID 0000.0001) %MON advcfl_W_hf_max              =   5.9079573078629E-03
(PID.TID 0000.0001) %MON pe_b_mean                    =  -8.3034457885604E-01
(PID.TID 0000.0001) %MON ke_max                       =   3.3310930429672E-04
(PID.TID 0000.0001) %MON ke_mean                      =   5.0859042970349E-07
(PID.TID 0000.0001) %MON ke_vol                       =   4.2724750883177E+12
(PID.TID 0000.0001) // =======================================================
(PID.TID 0000.0001) // End MONITOR dynamic field statistics
(PID.TID 0000.0001) // =======================================================
(PID.TID 0000.0001) // =======================================================
(PID.TID 0000.0001) // Begin OBCS MONITOR field statistics
(PID.TID 0000.0001) // =======================================================
(PID.TID 0000.0001) %MON obc_N_vVel_max               =   1.4876913191134E-05
(PID.TID 0000.0001) %MON obc_N_vVel_min               =   1.4876913191134E-05
(PID.TID 0000.0001) %MON obc_N_vVel_mean              =   1.4876913191134E-05
(PID.TID 0000.0001) %MON obc_N_vVel_sd                =   3.0420524490773E-12
(PID.TID 0000.0001) %MON obc_N_vVel_Int               =   9.8187627061482E+02
(PID.TID 0000.0001) // =======================================================
(PID.TID 0000.0001) // End OBCS MONITOR field statistics
(PID.TID 0000.0001) // =======================================================
 cg2d: Sum(rhs),rhsMax =   4.51147853072789E+00  2.99942147572404E+02
(PID.TID 0000.0001)      cg2d_init_res =   7.88153506193695E-06
(PID.TID 0000.0001)      cg2d_iters(min,last) =      -1      83
(PID.TID 0000.0001)      cg2d_last_res =   8.74751703444124E-12
(PID.TID 0000.0001) // =======================================================
(PID.TID 0000.0001) // Begin MONITOR dynamic field statistics
(PID.TID 0000.0001) // =======================================================
(PID.TID 0000.0001) %MON time_tsnumber                =                  1156
(PID.TID 0000.0001) %MON time_secondsf                =   1.1560000000000E+05
(PID.TID 0000.0001) %MON dynstat_eta_max              =   5.7970823515588E+00
(PID.TID 0000.0001) %MON dynstat_eta_min              =  -1.4199627420660E+01
(PID.TID 0000.0001) %MON dynstat_eta_mean             =  -2.5058936282098E+00
(PID.TID 0000.0001) %MON dynstat_eta_sd               =   4.9506078299789E+00
(PID.TID 0000.0001) %MON dynstat_eta_del2             =   2.0715488410862E-01
(PID.TID 0000.0001) %MON dynstat_uvel_max             =   6.6807300293803E-03
(PID.TID 0000.0001) %MON dynstat_uvel_min             =  -3.0227125370320E-02
(PID.TID 0000.0001) %MON dynstat_uvel_mean            =  -1.1429755560477E-07
(PID.TID 0000.0001) %MON dynstat_uvel_sd              =   8.7979732273301E-04
(PID.TID 0000.0001) %MON dynstat_uvel_del2            =   1.2872005108269E-06
(PID.TID 0000.0001) %MON dynstat_vvel_max             =   2.3060469637204E-02
(PID.TID 0000.0001) %MON dynstat_vvel_min             =  -9.7357554501905E-03
(PID.TID 0000.0001) %MON dynstat_vvel_mean            =   1.5226088583220E-05
(PID.TID 0000.0001) %MON dynstat_vvel_sd              =   5.1270603230180E-04
(PID.TID 0000.0001) %MON dynstat_vvel_del2            =   1.0340240310833E-06
(PID.TID 0000.0001) %MON dynstat_wvel_max             =   1.1843613036492E-03
(PID.TID 0000.0001) %MON dynstat_wvel_min             =  -1.1429294973289E-03
(PID.TID 0000.0001) %MON dynstat_wvel_mean            =   7.4676652900294E-09
(PID.TID 0000.0001) %MON dynstat_wvel_sd              =   2.0538447460379E-05
(PID.TID 0000.0001) %MON dynstat_wvel_del2            =   8.5659076949781E-08
(PID.TID 0000.0001) %MON dynstat_theta_max            =   1.2000000000000E+00
(PID.TID 0000.0001) %MON dynstat_theta_min            =  -1.0000000000000E+00
(PID.TID 0000.0001) %MON dynstat_theta_mean           =   5.6864347557413E-01
(PID.TID 0000.0001) %MON dynstat_theta_sd             =   8.6833543258497E-01
(PID.TID 0000.0001) %MON dynstat_theta_del2           =   3.3163102075422E-06
(PID.TID 0000.0001) %MON dynstat_salt_max             =   3.4700000000000E+01
(PID.TID 0000.0001) %MON dynstat_salt_min             =   3.4000000000000E+01
(PID.TID 0000.0001) %MON dynstat_salt_mean            =   3.4499071550718E+01
(PID.TID 0000.0001) %MON dynstat_salt_sd              =   2.7627232908696E-01
(PID.TID 0000.0001) %MON dynstat_salt_del2            =   1.3103534457262E-06
(PID.TID 0000.0001) %MON advcfl_uvel_max              =   3.0227125370320E-03
(PID.TID 0000.0001) %MON advcfl_vvel_max              =   2.3060469637204E-03
(PID.TID 0000.0001) %MON advcfl_wvel_max              =   5.9218065182459E-03
(PID.TID 0000.0001) %MON advcfl_W_hf_max              =   5.9218065182459E-03
(PID.TID 0000.0001) %MON pe_b_mean                    =  -8.3034655099767E-01
(PID.TID 0000.0001) %MON ke_max                       =   3.3485804911779E-04
(PID.TID 0000.0001) %MON ke_mean                      =   5.1089142662474E-07
(PID.TID 0000.0001) %MON ke_vol                       =   4.2724750401579E+12
(PID.TID 0000.0001) // =======================================================
(PID.TID 0000.0001) // End MONITOR dynamic field statistics
(PID.TID 0000.0001) // =======================================================
(PID.TID 0000.0001) // =======================================================
(PID.TID 0000.0001) // Begin OBCS MONITOR field statistics
(PID.TID 0000.0001) // =======================================================
(PID.TID 0000.0001) %MON obc_N_vVel_max               =   1.4912991248890E-05
(PID.TID 0000.0001) %MON obc_N_vVel_min               =   1.4912991248890E-05
(PID.TID 0000.0001) %MON obc_N_vVel_mean              =   1.4912991248890E-05
(PID.TID 0000.0001) %MON obc_N_vVel_sd                =   4.3677056765542E-12
(PID.TID 0000.0001) %MON obc_N_vVel_Int               =   9.8425742242671E+02
(PID.TID 0000.0001) // =======================================================
(PID.TID 0000.0001) // End OBCS MONITOR field statistics
(PID.TID 0000.0001) // =======================================================
 cg2d: Sum(rhs),rhsMax =   4.51149206239812E+00  2.99942224191906E+02
(PID.TID 0000.0001)      cg2d_init_res =   7.90509431488319E-06
(PID.TID 0000.0001)      cg2d_iters(min,last) =      -1      83
(PID.TID 0000.0001)      cg2d_last_res =   8.74893978702708E-12
(PID.TID 0000.0001) // =======================================================
(PID.TID 0000.0001) // Begin MONITOR dynamic field statistics
(PID.TID 0000.0001) // =======================================================
(PID.TID 0000.0001) %MON time_tsnumber                =                  1157
(PID.TID 0000.0001) %MON time_secondsf                =   1.1570000000000E+05
(PID.TID 0000.0001) %MON dynstat_eta_max              =   5.7970626724301E+00
(PID.TID 0000.0001) %MON dynstat_eta_min              =  -1.4199641921437E+01
(PID.TID 0000.0001) %MON dynstat_eta_mean             =  -2.5059017844812E+00
(PID.TID 0000.0001) %MON dynstat_eta_sd               =   4.9506109123105E+00
(PID.TID 0000.0001) %MON dynstat_eta_del2             =   2.0715491977738E-01
(PID.TID 0000.0001) %MON dynstat_uvel_max             =   6.6964264932388E-03
(PID.TID 0000.0001) %MON dynstat_uvel_min             =  -3.0301746177847E-02
(PID.TID 0000.0001) %MON dynstat_uvel_mean            =  -1.1415472432344E-07
(PID.TID 0000.0001) %MON dynstat_uvel_sd              =   8.8188062956132E-04
(PID.TID 0000.0001) %MON dynstat_uvel_del2            =   1.2902755497854E-06
(PID.TID 0000.0001) %MON dynstat_vvel_max             =   2.3108470895465E-02
(PID.TID 0000.0001) %MON dynstat_vvel_min             =  -9.7613224934925E-03
(PID.TID 0000.0001) %MON dynstat_vvel_mean            =   1.5263380192865E-05
(PID.TID 0000.0001) %MON dynstat_vvel_sd              =   5.1369986917794E-04
(PID.TID 0000.0001) %MON dynstat_vvel_del2            =   1.0361725464269E-06
(PID.TID 0000.0001) %MON dynstat_wvel_max             =   1.1871344118981E-03
(PID.TID 0000.0001) %MON dynstat_wvel_min             =  -1.1455517238790E-03
(PID.TID 0000.0001) %MON dynstat_wvel_mean            =   7.4931328520217E-09
(PID.TID 0000.0001) %MON dynstat_wvel_sd              =   2.0589923692997E-05
(PID.TID 0000.0001) %MON dynstat_wvel_del2            =   8.5874037878482E-08
(PID.TID 0000.0001) %MON dynstat_theta_max            =   1.2000000000000E+00
(PID.TID 0000.0001) %MON dynstat_theta_min            =  -1.0000000000000E+00
(PID.TID 0000.0001) %MON dynstat_theta_mean           =   5.6864246731038E-01
(PID.TID 0000.0001) %MON dynstat_theta_sd             =   8.6833488780580E-01
(PID.TID 0000.0001) %MON dynstat_theta_del2           =   3.3230211525153E-06
(PID.TID 0000.0001) %MON dynstat_salt_max             =   3.4700000000000E+01
(PID.TID 0000.0001) %MON dynstat_salt_min             =   3.4000000000000E+01
(PID.TID 0000.0001) %MON dynstat_salt_mean            =   3.4499071147201E+01
(PID.TID 0000.0001) %MON dynstat_salt_sd              =   2.7627211936373E-01
(PID.TID 0000.0001) %MON dynstat_salt_del2            =   1.3130396298170E-06
(PID.TID 0000.0001) %MON advcfl_uvel_max              =   3.0301746177847E-03
(PID.TID 0000.0001) %MON advcfl_vvel_max              =   2.3108470895465E-03
(PID.TID 0000.0001) %MON advcfl_wvel_max              =   5.9356720594905E-03
(PID.TID 0000.0001) %MON advcfl_W_hf_max              =   5.9356720594905E-03
(PID.TID 0000.0001) %MON pe_b_mean                    =  -8.3034852718486E-01
(PID.TID 0000.0001) %MON ke_max                       =   3.3661467544372E-04
(PID.TID 0000.0001) %MON ke_mean                      =   5.1320068899285E-07
(PID.TID 0000.0001) %MON ke_vol                       =   4.2724749918484E+12
(PID.TID 0000.0001) // =======================================================
(PID.TID 0000.0001) // End MONITOR dynamic field statistics
(PID.TID 0000.0001) // =======================================================
(PID.TID 0000.0001) // =======================================================
(PID.TID 0000.0001) // Begin OBCS MONITOR field statistics
(PID.TID 0000.0001) // =======================================================
(PID.TID 0000.0001) %MON obc_N_vVel_max               =   1.4947449501970E-05
(PID.TID 0000.0001) %MON obc_N_vVel_min               =   1.4947449501969E-05
(PID.TID 0000.0001) %MON obc_N_vVel_mean              =   1.4947449501969E-05
(PID.TID 0000.0001) %MON obc_N_vVel_sd                =   2.9863089222462E-12
(PID.TID 0000.0001) %MON obc_N_vVel_Int               =   9.8653166712999E+02
(PID.TID 0000.0001) // =======================================================
(PID.TID 0000.0001) // End OBCS MONITOR field statistics
(PID.TID 0000.0001) // =======================================================
 cg2d: Sum(rhs),rhsMax =   4.51150562565198E+00  2.99942301226030E+02
(PID.TID 0000.0001)      cg2d_init_res =   7.92550659963239E-06
(PID.TID 0000.0001)      cg2d_iters(min,last) =      -1      83
(PID.TID 0000.0001)      cg2d_last_res =   8.74909570148052E-12
(PID.TID 0000.0001) // =======================================================
(PID.TID 0000.0001) // Begin MONITOR dynamic field statistics
(PID.TID 0000.0001) // =======================================================
(PID.TID 0000.0001) %MON time_tsnumber                =                  1158
(PID.TID 0000.0001) %MON time_secondsf                =   1.1580000000000E+05
(PID.TID 0000.0001) %MON dynstat_eta_max              =   5.7970429493844E+00
(PID.TID 0000.0001) %MON dynstat_eta_min              =  -1.4199656460246E+01
(PID.TID 0000.0001) %MON dynstat_eta_mean             =  -2.5059099617634E+00
(PID.TID 0000.0001) %MON dynstat_eta_sd               =   4.9506139999852E+00
(PID.TID 0000.0001) %MON dynstat_eta_del2             =   2.0715495551333E-01
(PID.TID 0000.0001) %MON dynstat_uvel_max             =   6.7121518538364E-03
(PID.TID 0000.0001) %MON dynstat_uvel_min             =  -3.0376487637625E-02
(PID.TID 0000.0001) %MON dynstat_uvel_mean            =  -1.1398686037231E-07
(PID.TID 0000.0001) %MON dynstat_uvel_sd              =   8.8396801654806E-04
(PID.TID 0000.0001) %MON dynstat_uvel_del2            =   1.2933584484473E-06
(PID.TID 0000.0001) %MON dynstat_vvel_max             =   2.3156507771691E-02
(PID.TID 0000.0001) %MON dynstat_vvel_min             =  -9.7869500499748E-03
(PID.TID 0000.0001) %MON dynstat_vvel_mean            =   1.5297946200355E-05
(PID.TID 0000.0001) %MON dynstat_vvel_sd              =   5.1469263084840E-04
(PID.TID 0000.0001) %MON dynstat_vvel_del2            =   1.0383055597480E-06
(PID.TID 0000.0001) %MON dynstat_wvel_max             =   1.1899107784759E-03
(PID.TID 0000.0001) %MON dynstat_wvel_min             =  -1.1481770989238E-03
(PID.TID 0000.0001) %MON dynstat_wvel_mean            =   7.5114932058493E-09
(PID.TID 0000.0001) %MON dynstat_wvel_sd              =   2.0627790538453E-05
(PID.TID 0000.0001) %MON dynstat_wvel_del2            =   8.6032550853660E-08
(PID.TID 0000.0001) %MON dynstat_theta_max            =   1.2000000000000E+00
(PID.TID 0000.0001) %MON dynstat_theta_min            =  -1.0000000000000E+00
(PID.TID 0000.0001) %MON dynstat_theta_mean           =   5.6864145728620E-01
(PID.TID 0000.0001) %MON dynstat_theta_sd             =   8.6833434206457E-01
(PID.TID 0000.0001) %MON dynstat_theta_del2           =   3.3297623047432E-06
(PID.TID 0000.0001) %MON dynstat_salt_max             =   3.4700000000000E+01
(PID.TID 0000.0001) %MON dynstat_salt_min             =   3.4000000000000E+01
(PID.TID 0000.0001) %MON dynstat_salt_mean            =   3.4499070742976E+01
(PID.TID 0000.0001) %MON dynstat_salt_sd              =   2.7627190927141E-01
(PID.TID 0000.0001) %MON dynstat_salt_del2            =   1.3157350937523E-06
(PID.TID 0000.0001) %MON advcfl_uvel_max              =   3.0376487637625E-03
(PID.TID 0000.0001) %MON advcfl_vvel_max              =   2.3156507771691E-03
(PID.TID 0000.0001) %MON advcfl_wvel_max              =   5.9495538923793E-03
(PID.TID 0000.0001) %MON advcfl_W_hf_max              =   5.9495538923793E-03
(PID.TID 0000.0001) %MON pe_b_mean                    =  -8.3035050668040E-01
(PID.TID 0000.0001) %MON ke_max                       =   3.3837921275420E-04
(PID.TID 0000.0001) %MON ke_mean                      =   5.1551813500908E-07
(PID.TID 0000.0001) %MON ke_vol                       =   4.2724749434002E+12
(PID.TID 0000.0001) // =======================================================
(PID.TID 0000.0001) // End MONITOR dynamic field statistics
(PID.TID 0000.0001) // =======================================================
(PID.TID 0000.0001) // =======================================================
(PID.TID 0000.0001) // Begin OBCS MONITOR field statistics
(PID.TID 0000.0001) // =======================================================
(PID.TID 0000.0001) %MON obc_N_vVel_max               =   1.4979800444552E-05
(PID.TID 0000.0001) %MON obc_N_vVel_min               =   1.4979800444552E-05
(PID.TID 0000.0001) %MON obc_N_vVel_mean              =   1.4979800444552E-05
(PID.TID 0000.0001) %MON obc_N_vVel_sd                =  -9.0989867380833E-24
(PID.TID 0000.0001) %MON obc_N_vVel_Int               =   9.8866682934045E+02
(PID.TID 0000.0001) // =======================================================
(PID.TID 0000.0001) // End OBCS MONITOR field statistics
(PID.TID 0000.0001) // =======================================================
 cg2d: Sum(rhs),rhsMax =   4.51151921612229E+00  2.99942378622153E+02
(PID.TID 0000.0001)      cg2d_init_res =   7.94257122800061E-06
(PID.TID 0000.0001)      cg2d_iters(min,last) =      -1      83
(PID.TID 0000.0001)      cg2d_last_res =   8.74810333088160E-12
(PID.TID 0000.0001) // =======================================================
(PID.TID 0000.0001) // Begin MONITOR dynamic field statistics
(PID.TID 0000.0001) // =======================================================
(PID.TID 0000.0001) %MON time_tsnumber                =                  1159
(PID.TID 0000.0001) %MON time_secondsf                =   1.1590000000000E+05
(PID.TID 0000.0001) %MON dynstat_eta_max              =   5.7970231883535E+00
(PID.TID 0000.0001) %MON dynstat_eta_min              =  -1.4199671031133E+01
(PID.TID 0000.0001) %MON dynstat_eta_mean             =  -2.5059181571912E+00
(PID.TID 0000.0001) %MON dynstat_eta_sd               =   4.9506170916758E+00
(PID.TID 0000.0001) %MON dynstat_eta_del2             =   2.0715499131527E-01
(PID.TID 0000.0001) %MON dynstat_uvel_max             =   6.7279061771686E-03
(PID.TID 0000.0001) %MON dynstat_uvel_min             =  -3.0451349825737E-02
(PID.TID 0000.0001) %MON dynstat_uvel_mean            =  -1.1379675038714E-07
(PID.TID 0000.0001) %MON dynstat_uvel_sd              =   8.8605949121661E-04
(PID.TID 0000.0001) %MON dynstat_uvel_del2            =   1.2964492173462E-06
(PID.TID 0000.0001) %MON dynstat_vvel_max             =   2.3204579968828E-02
(PID.TID 0000.0001) %MON dynstat_vvel_min             =  -9.8126383217956E-03
(PID.TID 0000.0001) %MON dynstat_vvel_mean            =   1.5329304382808E-05
(PID.TID 0000.0001) %MON dynstat_vvel_sd              =   5.1568428295912E-04
(PID.TID 0000.0001) %MON dynstat_vvel_del2            =   1.0404234825946E-06
(PID.TID 0000.0001) %MON dynstat_wvel_max             =   1.1926903954293E-03
(PID.TID 0000.0001) %MON dynstat_wvel_min             =  -1.1508056072909E-03
(PID.TID 0000.0001) %MON dynstat_wvel_mean            =   7.5225271328686E-09
(PID.TID 0000.0001) %MON dynstat_wvel_sd              =   2.0651898052036E-05
(PID.TID 0000.0001) %MON dynstat_wvel_del2            =   8.6132032122406E-08
(PID.TID 0000.0001) %MON dynstat_theta_max            =   1.2000000000000E+00
(PID.TID 0000.0001) %MON dynstat_theta_min            =  -1.0000000000000E+00
(PID.TID 0000.0001) %MON dynstat_theta_mean           =   5.6864044549852E-01
(PID.TID 0000.0001) %MON dynstat_theta_sd             =   8.6833379536555E-01
(PID.TID 0000.0001) %MON dynstat_theta_del2           =   3.3365344002435E-06
(PID.TID 0000.0001) %MON dynstat_salt_max             =   3.4700000000000E+01
(PID.TID 0000.0001) %MON dynstat_salt_min             =   3.4000000000000E+01
(PID.TID 0000.0001) %MON dynstat_salt_mean            =   3.4499070338044E+01
(PID.TID 0000.0001) %MON dynstat_salt_sd              =   2.7627169881124E-01
(PID.TID 0000.0001) %MON dynstat_salt_del2            =   1.3184400611760E-06
(PID.TID 0000.0001) %MON advcfl_uvel_max              =   3.0451349825737E-03
(PID.TID 0000.0001) %MON advcfl_vvel_max              =   2.3204579968828E-03
(PID.TID 0000.0001) %MON advcfl_wvel_max              =   5.9634519771465E-03
(PID.TID 0000.0001) %MON advcfl_W_hf_max              =   5.9634519771465E-03
(PID.TID 0000.0001) %MON pe_b_mean                    =  -8.3035248862758E-01
(PID.TID 0000.0001) %MON ke_max                       =   3.4015169071872E-04
(PID.TID 0000.0001) %MON ke_mean                      =   5.1784376771596E-07
(PID.TID 0000.0001) %MON ke_vol                       =   4.2724748948271E+12
(PID.TID 0000.0001) // =======================================================
(PID.TID 0000.0001) // End MONITOR dynamic field statistics
(PID.TID 0000.0001) // =======================================================
(PID.TID 0000.0001) // =======================================================
(PID.TID 0000.0001) // Begin OBCS MONITOR field statistics
(PID.TID 0000.0001) // =======================================================
(PID.TID 0000.0001) %MON obc_N_vVel_max               =   1.5009589541234E-05
(PID.TID 0000.0001) %MON obc_N_vVel_min               =   1.5009589541234E-05
(PID.TID 0000.0001) %MON obc_N_vVel_mean              =   1.5009589541234E-05
(PID.TID 0000.0001) %MON obc_N_vVel_sd                =   3.2155493553844E-12
(PID.TID 0000.0001) %MON obc_N_vVel_Int               =   9.9063290972145E+02
(PID.TID 0000.0001) // =======================================================
(PID.TID 0000.0001) // End OBCS MONITOR field statistics
(PID.TID 0000.0001) // =======================================================
 cg2d: Sum(rhs),rhsMax =   4.51153282868844E+00  2.99942456322549E+02
(PID.TID 0000.0001)      cg2d_init_res =   7.95615055926015E-06
(PID.TID 0000.0001)      cg2d_iters(min,last) =      -1      83
(PID.TID 0000.0001)      cg2d_last_res =   8.74610666008929E-12
(PID.TID 0000.0001) // =======================================================
(PID.TID 0000.0001) // Begin MONITOR dynamic field statistics
(PID.TID 0000.0001) // =======================================================
(PID.TID 0000.0001) %MON time_tsnumber                =                  1160
(PID.TID 0000.0001) %MON time_secondsf                =   1.1600000000000E+05
(PID.TID 0000.0001) %MON dynstat_eta_max              =   5.7970033960643E+00
(PID.TID 0000.0001) %MON dynstat_eta_min              =  -1.4199685627434E+01
(PID.TID 0000.0001) %MON dynstat_eta_mean             =  -2.5059263674382E+00
(PID.TID 0000.0001) %MON dynstat_eta_sd               =   4.9506201859411E+00
(PID.TID 0000.0001) %MON dynstat_eta_del2             =   2.0715502718179E-01
(PID.TID 0000.0001) %MON dynstat_uvel_max             =   6.7436895252300E-03
(PID.TID 0000.0001) %MON dynstat_uvel_min             =  -3.0526332823525E-02
(PID.TID 0000.0001) %MON dynstat_uvel_mean            =  -1.1358726436023E-07
(PID.TID 0000.0001) %MON dynstat_uvel_sd              =   8.8815506101279E-04
(PID.TID 0000.0001) %MON dynstat_uvel_del2            =   1.2995478633469E-06
(PID.TID 0000.0001) %MON dynstat_vvel_max             =   2.3252687198446E-02
(PID.TID 0000.0001) %MON dynstat_vvel_min             =  -9.8383875009826E-03
(PID.TID 0000.0001) %MON dynstat_vvel_mean            =   1.5357021383914E-05
(PID.TID 0000.0001) %MON dynstat_vvel_sd              =   5.1667495576667E-04
(PID.TID 0000.0001) %MON dynstat_vvel_del2            =   1.0425278964669E-06
(PID.TID 0000.0001) %MON dynstat_wvel_max             =   1.1954732547085E-03
(PID.TID 0000.0001) %MON dynstat_wvel_min             =  -1.1534372342797E-03
(PID.TID 0000.0001) %MON dynstat_wvel_mean            =   7.5261236672507E-09
(PID.TID 0000.0001) %MON dynstat_wvel_sd              =   2.0662920952921E-05
(PID.TID 0000.0001) %MON dynstat_wvel_del2            =   8.6173721729307E-08
(PID.TID 0000.0001) %MON dynstat_theta_max            =   1.2000000000000E+00
(PID.TID 0000.0001) %MON dynstat_theta_min            =  -1.0000000000000E+00
(PID.TID 0000.0001) %MON dynstat_theta_mean           =   5.6863943194405E-01
(PID.TID 0000.0001) %MON dynstat_theta_sd             =   8.6833324771179E-01
(PID.TID 0000.0001) %MON dynstat_theta_del2           =   3.3433369221972E-06
(PID.TID 0000.0001) %MON dynstat_salt_max             =   3.4700000000000E+01
(PID.TID 0000.0001) %MON dynstat_salt_min             =   3.4000000000000E+01
(PID.TID 0000.0001) %MON dynstat_salt_mean            =   3.4499069932402E+01
(PID.TID 0000.0001) %MON dynstat_salt_sd              =   2.7627148798426E-01
(PID.TID 0000.0001) %MON dynstat_salt_del2            =   1.3211544972300E-06
(PID.TID 0000.0001) %MON advcfl_uvel_max              =   3.0526332823525E-03
(PID.TID 0000.0001) %MON advcfl_vvel_max              =   2.3252687198446E-03
(PID.TID 0000.0001) %MON advcfl_wvel_max              =   5.9773662735426E-03
(PID.TID 0000.0001) %MON advcfl_W_hf_max              =   5.9773662735426E-03
(PID.TID 0000.0001) %MON pe_b_mean                    =  -8.3035447206311E-01
(PID.TID 0000.0001) %MON ke_max                       =   3.4193213920194E-04
(PID.TID 0000.0001) %MON ke_mean                      =   5.2017767582346E-07
(PID.TID 0000.0001) %MON ke_vol                       =   4.2724748461463E+12
(PID.TID 0000.0001) // =======================================================
(PID.TID 0000.0001) // End MONITOR dynamic field statistics
(PID.TID 0000.0001) // =======================================================
(PID.TID 0000.0001) // =======================================================
(PID.TID 0000.0001) // Begin OBCS MONITOR field statistics
(PID.TID 0000.0001) // =======================================================
(PID.TID 0000.0001) %MON obc_N_vVel_max               =   1.5036401656949E-05
(PID.TID 0000.0001) %MON obc_N_vVel_min               =   1.5036401656949E-05
(PID.TID 0000.0001) %MON obc_N_vVel_mean              =   1.5036401656949E-05
(PID.TID 0000.0001) %MON obc_N_vVel_sd                =   3.4482925202845E-12
(PID.TID 0000.0001) %MON obc_N_vVel_Int               =   9.9240250935863E+02
(PID.TID 0000.0001) // =======================================================
(PID.TID 0000.0001) // End OBCS MONITOR field statistics
(PID.TID 0000.0001) // =======================================================
 cg2d: Sum(rhs),rhsMax =   4.51154645755071E+00  2.99942534265453E+02
(PID.TID 0000.0001)      cg2d_init_res =   7.96620302230870E-06
(PID.TID 0000.0001)      cg2d_iters(min,last) =      -1      83
(PID.TID 0000.0001)      cg2d_last_res =   8.74323512077054E-12
(PID.TID 0000.0001) // =======================================================
(PID.TID 0000.0001) // Begin MONITOR dynamic field statistics
(PID.TID 0000.0001) // =======================================================
(PID.TID 0000.0001) %MON time_tsnumber                =                  1161
(PID.TID 0000.0001) %MON time_secondsf                =   1.1610000000000E+05
(PID.TID 0000.0001) %MON dynstat_eta_max              =   5.7969835799355E+00
(PID.TID 0000.0001) %MON dynstat_eta_min              =  -1.4199700241857E+01
(PID.TID 0000.0001) %MON dynstat_eta_mean             =  -2.5059345887668E+00
(PID.TID 0000.0001) %MON dynstat_eta_sd               =   4.9506232812529E+00
(PID.TID 0000.0001) %MON dynstat_eta_del2             =   2.0715506311152E-01
(PID.TID 0000.0001) %MON dynstat_uvel_max             =   6.7595019556919E-03
(PID.TID 0000.0001) %MON dynstat_uvel_min             =  -3.0601436717932E-02
(PID.TID 0000.0001) %MON dynstat_uvel_mean            =  -1.1336131244539E-07
(PID.TID 0000.0001) %MON dynstat_uvel_sd              =   8.9025473335511E-04
(PID.TID 0000.0001) %MON dynstat_uvel_del2            =   1.3026543903860E-06
(PID.TID 0000.0001) %MON dynstat_vvel_max             =   2.3300829181907E-02
(PID.TID 0000.0001) %MON dynstat_vvel_min             =  -9.8641977679748E-03
(PID.TID 0000.0001) %MON dynstat_vvel_mean            =   1.5380718883074E-05
(PID.TID 0000.0001) %MON dynstat_vvel_sd              =   5.1766493402266E-04
(PID.TID 0000.0001) %MON dynstat_vvel_del2            =   1.0446214663050E-06
(PID.TID 0000.0001) %MON dynstat_wvel_max             =   1.1982593481352E-03
(PID.TID 0000.0001) %MON dynstat_wvel_min             =  -1.1560719657968E-03
(PID.TID 0000.0001) %MON dynstat_wvel_mean            =   7.5222800423464E-09
(PID.TID 0000.0001) %MON dynstat_wvel_sd              =   2.0662315415830E-05
(PID.TID 0000.0001) %MON dynstat_wvel_del2            =   8.6162656051653E-08
(PID.TID 0000.0001) %MON dynstat_theta_max            =   1.2000000000000E+00
(PID.TID 0000.0001) %MON dynstat_theta_min            =  -1.0000000000000E+00
(PID.TID 0000.0001) %MON dynstat_theta_mean           =   5.6863841661922E-01
(PID.TID 0000.0001) %MON dynstat_theta_sd             =   8.6833269910679E-01
(PID.TID 0000.0001) %MON dynstat_theta_del2           =   3.3501682461494E-06
(PID.TID 0000.0001) %MON dynstat_salt_max             =   3.4700000000000E+01
(PID.TID 0000.0001) %MON dynstat_salt_min             =   3.4000000000000E+01
(PID.TID 0000.0001) %MON dynstat_salt_mean            =   3.4499069526049E+01
(PID.TID 0000.0001) %MON dynstat_salt_sd              =   2.7627127679150E-01
(PID.TID 0000.0001) %MON dynstat_salt_del2            =   1.3238780714547E-06
(PID.TID 0000.0001) %MON advcfl_uvel_max              =   3.0601436717932E-03
(PID.TID 0000.0001) %MON advcfl_vvel_max              =   2.3300829181907E-03
(PID.TID 0000.0001) %MON advcfl_wvel_max              =   5.9912967406762E-03
(PID.TID 0000.0001) %MON advcfl_W_hf_max              =   5.9912967406762E-03
(PID.TID 0000.0001) %MON pe_b_mean                    =  -8.3035645593156E-01
(PID.TID 0000.0001) %MON ke_max                       =   3.4372058826889E-04
(PID.TID 0000.0001) %MON ke_mean                      =   5.2252002944702E-07
(PID.TID 0000.0001) %MON ke_vol                       =   4.2724747973774E+12
(PID.TID 0000.0001) // =======================================================
(PID.TID 0000.0001) // End MONITOR dynamic field statistics
(PID.TID 0000.0001) // =======================================================
(PID.TID 0000.0001) // =======================================================
(PID.TID 0000.0001) // Begin OBCS MONITOR field statistics
(PID.TID 0000.0001) // =======================================================
(PID.TID 0000.0001) %MON obc_N_vVel_max               =   1.5059867027969E-05
(PID.TID 0000.0001) %MON obc_N_vVel_min               =   1.5059867027968E-05
(PID.TID 0000.0001) %MON obc_N_vVel_mean              =   1.5059867027969E-05
(PID.TID 0000.0001) %MON obc_N_vVel_sd                =  -7.5738724836887E-24
(PID.TID 0000.0001) %MON obc_N_vVel_Int               =   9.9395122384595E+02
(PID.TID 0000.0001) // =======================================================
(PID.TID 0000.0001) // End OBCS MONITOR field statistics
(PID.TID 0000.0001) // =======================================================
 cg2d: Sum(rhs),rhsMax =   4.51156009631228E+00  2.99942612386287E+02
(PID.TID 0000.0001)      cg2d_init_res =   7.97276233961843E-06
(PID.TID 0000.0001)      cg2d_iters(min,last) =      -1      83
(PID.TID 0000.0001)      cg2d_last_res =   8.73964052323664E-12
(PID.TID 0000.0001) // =======================================================
(PID.TID 0000.0001) // Begin MONITOR dynamic field statistics
(PID.TID 0000.0001) // =======================================================
(PID.TID 0000.0001) %MON time_tsnumber                =                  1162
(PID.TID 0000.0001) %MON time_secondsf                =   1.1620000000000E+05
(PID.TID 0000.0001) %MON dynstat_eta_max              =   5.7969637479600E+00
(PID.TID 0000.0001) %MON dynstat_eta_min              =  -1.4199714866607E+01
(PID.TID 0000.0001) %MON dynstat_eta_mean             =  -2.5059428170845E+00
(PID.TID 0000.0001) %MON dynstat_eta_sd               =   4.9506263760158E+00
(PID.TID 0000.0001) %MON dynstat_eta_del2             =   2.0715509910303E-01
(PID.TID 0000.0001) %MON dynstat_uvel_max             =   6.7753435210101E-03
(PID.TID 0000.0001) %MON dynstat_uvel_min             =  -3.0676661601554E-02
(PID.TID 0000.0001) %MON dynstat_uvel_mean            =  -1.1312181787449E-07
(PID.TID 0000.0001) %MON dynstat_uvel_sd              =   8.9235851570051E-04
(PID.TID 0000.0001) %MON dynstat_uvel_del2            =   1.3057688000043E-06
(PID.TID 0000.0001) %MON dynstat_vvel_max             =   2.3349005651577E-02
(PID.TID 0000.0001) %MON dynstat_vvel_min             =  -9.8900692909165E-03
(PID.TID 0000.0001) %MON dynstat_vvel_mean            =   1.5400078968773E-05
(PID.TID 0000.0001) %MON dynstat_vvel_sd              =   5.1865463776536E-04
(PID.TID 0000.0001) %MON dynstat_vvel_del2            =   1.0467077818219E-06
(PID.TID 0000.0001) %MON dynstat_wvel_max             =   1.2010486674289E-03
(PID.TID 0000.0001) %MON dynstat_wvel_min             =  -1.1587097883195E-03
(PID.TID 0000.0001) %MON dynstat_wvel_mean            =   7.5111028125375E-09
(PID.TID 0000.0001) %MON dynstat_wvel_sd              =   2.0652232214142E-05
(PID.TID 0000.0001) %MON dynstat_wvel_del2            =   8.6107397393880E-08
(PID.TID 0000.0001) %MON dynstat_theta_max            =   1.2000000000000E+00
(PID.TID 0000.0001) %MON dynstat_theta_min            =  -1.0000000000000E+00
(PID.TID 0000.0001) %MON dynstat_theta_mean           =   5.6863739952014E-01
(PID.TID 0000.0001) %MON dynstat_theta_sd             =   8.6833214955400E-01
(PID.TID 0000.0001) %MON dynstat_theta_del2           =   3.3570256557388E-06
(PID.TID 0000.0001) %MON dynstat_salt_max             =   3.4700000000000E+01
(PID.TID 0000.0001) %MON dynstat_salt_min             =   3.4000000000000E+01
(PID.TID 0000.0001) %MON dynstat_salt_mean            =   3.4499069118984E+01
(PID.TID 0000.0001) %MON dynstat_salt_sd              =   2.7627106523398E-01
(PID.TID 0000.0001) %MON dynstat_salt_del2            =   1.3266101873948E-06
(PID.TID 0000.0001) %MON advcfl_uvel_max              =   3.0676661601554E-03
(PID.TID 0000.0001) %MON advcfl_vvel_max              =   2.3349005651577E-03
(PID.TID 0000.0001) %MON advcfl_wvel_max              =   6.0052433371446E-03
(PID.TID 0000.0001) %MON advcfl_W_hf_max              =   6.0052433371446E-03
(PID.TID 0000.0001) %MON pe_b_mean                    =  -8.3035843910092E-01
(PID.TID 0000.0001) %MON ke_max                       =   3.4551706818778E-04
(PID.TID 0000.0001) %MON ke_mean                      =   5.2487107106963E-07
(PID.TID 0000.0001) %MON ke_vol                       =   4.2724747485427E+12
(PID.TID 0000.0001) // =======================================================
(PID.TID 0000.0001) // End MONITOR dynamic field statistics
(PID.TID 0000.0001) // =======================================================
(PID.TID 0000.0001) // =======================================================
(PID.TID 0000.0001) // Begin OBCS MONITOR field statistics
(PID.TID 0000.0001) // =======================================================
(PID.TID 0000.0001) %MON obc_N_vVel_max               =   1.5079666468533E-05
(PID.TID 0000.0001) %MON obc_N_vVel_min               =   1.5079666468532E-05
(PID.TID 0000.0001) %MON obc_N_vVel_mean              =   1.5079666468532E-05
(PID.TID 0000.0001) %MON obc_N_vVel_sd                =   3.6592330023793E-12
(PID.TID 0000.0001) %MON obc_N_vVel_Int               =   9.9525798692312E+02
(PID.TID 0000.0001) // =======================================================
(PID.TID 0000.0001) // End OBCS MONITOR field statistics
(PID.TID 0000.0001) // =======================================================
 cg2d: Sum(rhs),rhsMax =   4.51157373807024E+00  2.99942690618987E+02
(PID.TID 0000.0001)      cg2d_init_res =   7.97593964222487E-06
(PID.TID 0000.0001)      cg2d_iters(min,last) =      -1      83
(PID.TID 0000.0001)      cg2d_last_res =   8.73545470241084E-12
(PID.TID 0000.0001) // =======================================================
(PID.TID 0000.0001) // Begin MONITOR dynamic field statistics
(PID.TID 0000.0001) // =======================================================
(PID.TID 0000.0001) %MON time_tsnumber                =                  1163
(PID.TID 0000.0001) %MON time_secondsf                =   1.1630000000000E+05
(PID.TID 0000.0001) %MON dynstat_eta_max              =   5.7969439085930E+00
(PID.TID 0000.0001) %MON dynstat_eta_min              =  -1.4199729493486E+01
(PID.TID 0000.0001) %MON dynstat_eta_mean             =  -2.5059510480051E+00
(PID.TID 0000.0001) %MON dynstat_eta_sd               =   4.9506294685907E+00
(PID.TID 0000.0001) %MON dynstat_eta_del2             =   2.0715513515486E-01
(PID.TID 0000.0001) %MON dynstat_uvel_max             =   6.7912142681621E-03
(PID.TID 0000.0001) %MON dynstat_uvel_min             =  -3.0752007572861E-02
(PID.TID 0000.0001) %MON dynstat_uvel_mean            =  -1.1287170624067E-07
(PID.TID 0000.0001) %MON dynstat_uvel_sd              =   8.9446641562065E-04
(PID.TID 0000.0001) %MON dynstat_uvel_del2            =   1.3088910920865E-06
(PID.TID 0000.0001) %MON dynstat_vvel_max             =   2.3397216351642E-02
(PID.TID 0000.0001) %MON dynstat_vvel_min             =  -9.9160022246529E-03
(PID.TID 0000.0001) %MON dynstat_vvel_mean            =   1.5414848634034E-05
(PID.TID 0000.0001) %MON dynstat_vvel_sd              =   5.1964459525780E-04
(PID.TID 0000.0001) %MON dynstat_vvel_del2            =   1.0487911371243E-06
(PID.TID 0000.0001) %MON dynstat_wvel_max             =   1.2038412041722E-03
(PID.TID 0000.0001) %MON dynstat_wvel_min             =  -1.1613506890242E-03
(PID.TID 0000.0001) %MON dynstat_wvel_mean            =   7.4928054675199E-09
(PID.TID 0000.0001) %MON dynstat_wvel_sd              =   2.0635389484554E-05
(PID.TID 0000.0001) %MON dynstat_wvel_del2            =   8.6019529030846E-08
(PID.TID 0000.0001) %MON dynstat_theta_max            =   1.2000000000000E+00
(PID.TID 0000.0001) %MON dynstat_theta_min            =  -1.0000000000000E+00
(PID.TID 0000.0001) %MON dynstat_theta_mean           =   5.6863638064270E-01
(PID.TID 0000.0001) %MON dynstat_theta_sd             =   8.6833159905506E-01
(PID.TID 0000.0001) %MON dynstat_theta_del2           =   3.3639056660635E-06
(PID.TID 0000.0001) %MON dynstat_salt_max             =   3.4700000000000E+01
(PID.TID 0000.0001) %MON dynstat_salt_min             =   3.4000000000000E+01
(PID.TID 0000.0001) %MON dynstat_salt_mean            =   3.4499068711205E+01
(PID.TID 0000.0001) %MON dynstat_salt_sd              =   2.7627085331206E-01
(PID.TID 0000.0001) %MON dynstat_salt_del2            =   1.3293500465326E-06
(PID.TID 0000.0001) %MON advcfl_uvel_max              =   3.0752007572861E-03
(PID.TID 0000.0001) %MON advcfl_vvel_max              =   2.3397216351642E-03
(PID.TID 0000.0001) %MON advcfl_wvel_max              =   6.0192060208608E-03
(PID.TID 0000.0001) %MON advcfl_W_hf_max              =   6.0192060208608E-03
(PID.TID 0000.0001) %MON pe_b_mean                    =  -8.3036042037951E-01
(PID.TID 0000.0001) %MON ke_max                       =   3.4732160943046E-04
(PID.TID 0000.0001) %MON ke_mean                      =   5.2723110230589E-07
(PID.TID 0000.0001) %MON ke_vol                       =   4.2724746996665E+12
(PID.TID 0000.0001) // =======================================================
(PID.TID 0000.0001) // End MONITOR dynamic field statistics
(PID.TID 0000.0001) // =======================================================
(PID.TID 0000.0001) // =======================================================
(PID.TID 0000.0001) // Begin OBCS MONITOR field statistics
(PID.TID 0000.0001) // =======================================================
(PID.TID 0000.0001) %MON obc_N_vVel_max               =   1.5095535921781E-05
(PID.TID 0000.0001) %MON obc_N_vVel_min               =   1.5095535921781E-05
(PID.TID 0000.0001) %MON obc_N_vVel_mean              =   1.5095535921781E-05
(PID.TID 0000.0001) %MON obc_N_vVel_sd                =  -1.2123365852730E-23
(PID.TID 0000.0001) %MON obc_N_vVel_Int               =   9.9630537083756E+02
(PID.TID 0000.0001) // =======================================================
(PID.TID 0000.0001) // End OBCS MONITOR field statistics
(PID.TID 0000.0001) // =======================================================
 cg2d: Sum(rhs),rhsMax =   4.51158737551722E+00  2.99942768897178E+02
(PID.TID 0000.0001)      cg2d_init_res =   7.97592020358706E-06
(PID.TID 0000.0001)      cg2d_iters(min,last) =      -1      82
(PID.TID 0000.0001)      cg2d_last_res =   9.98807306803203E-12
(PID.TID 0000.0001) // =======================================================
(PID.TID 0000.0001) // Begin MONITOR dynamic field statistics
(PID.TID 0000.0001) // =======================================================
(PID.TID 0000.0001) %MON time_tsnumber                =                  1164
(PID.TID 0000.0001) %MON time_secondsf                =   1.1640000000000E+05
(PID.TID 0000.0001) %MON dynstat_eta_max              =   5.7969240712544E+00
(PID.TID 0000.0001) %MON dynstat_eta_min              =  -1.4199744114033E+01
(PID.TID 0000.0001) %MON dynstat_eta_mean             =  -2.5059592769152E+00
(PID.TID 0000.0001) %MON dynstat_eta_sd               =   4.9506325573187E+00
(PID.TID 0000.0001) %MON dynstat_eta_del2             =   2.0715517126533E-01
(PID.TID 0000.0001) %MON dynstat_uvel_max             =   6.8071142398907E-03
(PID.TID 0000.0001) %MON dynstat_uvel_min             =  -3.0827474734567E-02
(PID.TID 0000.0001) %MON dynstat_uvel_mean            =  -1.1261356519018E-07
(PID.TID 0000.0001) %MON dynstat_uvel_sd              =   8.9657844088489E-04
(PID.TID 0000.0001) %MON dynstat_uvel_del2            =   1.3120212657398E-06
(PID.TID 0000.0001) %MON dynstat_vvel_max             =   2.3445461034432E-02
(PID.TID 0000.0001) %MON dynstat_vvel_min             =  -9.9419967133016E-03
(PID.TID 0000.0001) %MON dynstat_vvel_mean            =   1.5424843257687E-05
(PID.TID 0000.0001) %MON dynstat_vvel_sd              =   5.2063540980852E-04
(PID.TID 0000.0001) %MON dynstat_vvel_del2            =   1.0508762627361E-06
(PID.TID 0000.0001) %MON dynstat_wvel_max             =   1.2066369489198E-03
(PID.TID 0000.0001) %MON dynstat_wvel_min             =  -1.1639946540117E-03
(PID.TID 0000.0001) %MON dynstat_wvel_mean            =   7.4677043834020E-09
(PID.TID 0000.0001) %MON dynstat_wvel_sd              =   2.0614910468731E-05
(PID.TID 0000.0001) %MON dynstat_wvel_del2            =   8.5912937470787E-08
(PID.TID 0000.0001) %MON dynstat_theta_max            =   1.2000000000000E+00
(PID.TID 0000.0001) %MON dynstat_theta_min            =  -1.0000000000000E+00
(PID.TID 0000.0001) %MON dynstat_theta_mean           =   5.6863535998267E-01
(PID.TID 0000.0001) %MON dynstat_theta_sd             =   8.6833104760906E-01
(PID.TID 0000.0001) %MON dynstat_theta_del2           =   3.3708043079542E-06
(PID.TID 0000.0001) %MON dynstat_salt_max             =   3.4700000000000E+01
(PID.TID 0000.0001) %MON dynstat_salt_min             =   3.4000000000000E+01
(PID.TID 0000.0001) %MON dynstat_salt_mean            =   3.4499068302711E+01
(PID.TID 0000.0001) %MON dynstat_salt_sd              =   2.7627064102560E-01
(PID.TID 0000.0001) %MON dynstat_salt_del2            =   1.3320967142234E-06
(PID.TID 0000.0001) %MON advcfl_uvel_max              =   3.0827474734567E-03
(PID.TID 0000.0001) %MON advcfl_vvel_max              =   2.3445461034432E-03
(PID.TID 0000.0001) %MON advcfl_wvel_max              =   6.0331847445989E-03
(PID.TID 0000.0001) %MON advcfl_W_hf_max              =   6.0331847445989E-03
(PID.TID 0000.0001) %MON pe_b_mean                    =  -8.3036239853393E-01
(PID.TID 0000.0001) %MON ke_max                       =   3.4913424264079E-04
(PID.TID 0000.0001) %MON ke_mean                      =   5.2960046731089E-07
(PID.TID 0000.0001) %MON ke_vol                       =   4.2724746507749E+12
(PID.TID 0000.0001) // =======================================================
(PID.TID 0000.0001) // End MONITOR dynamic field statistics
(PID.TID 0000.0001) // =======================================================
(PID.TID 0000.0001) // =======================================================
(PID.TID 0000.0001) // Begin OBCS MONITOR field statistics
(PID.TID 0000.0001) // =======================================================
(PID.TID 0000.0001) %MON obc_N_vVel_max               =   1.5107270146529E-05
(PID.TID 0000.0001) %MON obc_N_vVel_min               =   1.5107270146529E-05
(PID.TID 0000.0001) %MON obc_N_vVel_mean              =   1.5107270146529E-05
(PID.TID 0000.0001) %MON obc_N_vVel_sd                =  -1.0184661292059E-23
(PID.TID 0000.0001) %MON obc_N_vVel_Int               =   9.9707982967091E+02
(PID.TID 0000.0001) // =======================================================
(PID.TID 0000.0001) // End OBCS MONITOR field statistics
(PID.TID 0000.0001) // =======================================================
 cg2d: Sum(rhs),rhsMax =   4.51160100104350E+00  2.99942847155407E+02
(PID.TID 0000.0001)      cg2d_init_res =   7.97305270484401E-06
(PID.TID 0000.0001)      cg2d_iters(min,last) =      -1      82
(PID.TID 0000.0001)      cg2d_last_res =   9.97525554580848E-12
(PID.TID 0000.0001) // =======================================================
(PID.TID 0000.0001) // Begin MONITOR dynamic field statistics
(PID.TID 0000.0001) // =======================================================
(PID.TID 0000.0001) %MON time_tsnumber                =                  1165
(PID.TID 0000.0001) %MON time_secondsf                =   1.1650000000000E+05
(PID.TID 0000.0001) %MON dynstat_eta_max              =   5.7969042438094E+00
(PID.TID 0000.0001) %MON dynstat_eta_min              =  -1.4199758719588E+01
(PID.TID 0000.0001) %MON dynstat_eta_mean             =  -2.5059674990411E+00
(PID.TID 0000.0001) %MON dynstat_eta_sd               =   4.9506356405545E+00
(PID.TID 0000.0001) %MON dynstat_eta_del2             =   2.0715520743368E-01
(PID.TID 0000.0001) %MON dynstat_uvel_max             =   6.8230434677297E-03
(PID.TID 0000.0001) %MON dynstat_uvel_min             =  -3.0903063201659E-02
(PID.TID 0000.0001) %MON dynstat_uvel_mean            =  -1.1235087120382E-07
(PID.TID 0000.0001) %MON dynstat_uvel_sd              =   8.9869459950548E-04
(PID.TID 0000.0001) %MON dynstat_uvel_del2            =   1.3151593197941E-06
(PID.TID 0000.0001) %MON dynstat_vvel_max             =   2.3493739483399E-02
(PID.TID 0000.0001) %MON dynstat_vvel_min             =  -9.9680528742887E-03
(PID.TID 0000.0001) %MON dynstat_vvel_mean            =   1.5429949399230E-05
(PID.TID 0000.0001) %MON dynstat_vvel_sd              =   5.2162772266959E-04
(PID.TID 0000.0001) %MON dynstat_vvel_del2            =   1.0529680278118E-06
(PID.TID 0000.0001) %MON dynstat_wvel_max             =   1.2094358957181E-03
(PID.TID 0000.0001) %MON dynstat_wvel_min             =  -1.1666416772857E-03
(PID.TID 0000.0001) %MON dynstat_wvel_mean            =   7.4362214321110E-09
(PID.TID 0000.0001) %MON dynstat_wvel_sd              =   2.0594133900783E-05
(PID.TID 0000.0001) %MON dynstat_wvel_del2            =   8.5802918320345E-08
(PID.TID 0000.0001) %MON dynstat_theta_max            =   1.2000000000000E+00
(PID.TID 0000.0001) %MON dynstat_theta_min            =  -1.0000000000000E+00
(PID.TID 0000.0001) %MON dynstat_theta_mean           =   5.6863433753559E-01
(PID.TID 0000.0001) %MON dynstat_theta_sd             =   8.6833049521450E-01
(PID.TID 0000.0001) %MON dynstat_theta_del2           =   3.3777173585351E-06
(PID.TID 0000.0001) %MON dynstat_salt_max             =   3.4700000000000E+01
(PID.TID 0000.0001) %MON dynstat_salt_min             =   3.4000000000000E+01
(PID.TID 0000.0001) %MON dynstat_salt_mean            =   3.4499067893500E+01
(PID.TID 0000.0001) %MON dynstat_salt_sd              =   2.7627042837388E-01
(PID.TID 0000.0001) %MON dynstat_salt_del2            =   1.3348491963590E-06
(PID.TID 0000.0001) %MON advcfl_uvel_max              =   3.0903063201659E-03
(PID.TID 0000.0001) %MON advcfl_vvel_max              =   2.3493739483399E-03
(PID.TID 0000.0001) %MON advcfl_wvel_max              =   6.0471794785905E-03
(PID.TID 0000.0001) %MON advcfl_W_hf_max              =   6.0471794785905E-03
(PID.TID 0000.0001) %MON pe_b_mean                    =  -8.3036437230703E-01
(PID.TID 0000.0001) %MON ke_max                       =   3.5095499879997E-04
(PID.TID 0000.0001) %MON ke_mean                      =   5.3197953390047E-07
(PID.TID 0000.0001) %MON ke_vol                       =   4.2724746018951E+12
(PID.TID 0000.0001) // =======================================================
(PID.TID 0000.0001) // End MONITOR dynamic field statistics
(PID.TID 0000.0001) // =======================================================
(PID.TID 0000.0001) // =======================================================
(PID.TID 0000.0001) // Begin OBCS MONITOR field statistics
(PID.TID 0000.0001) // =======================================================
(PID.TID 0000.0001) %MON obc_N_vVel_max               =   1.5114725404518E-05
(PID.TID 0000.0001) %MON obc_N_vVel_min               =   1.5114725404518E-05
(PID.TID 0000.0001) %MON obc_N_vVel_mean              =   1.5114725404518E-05
(PID.TID 0000.0001) %MON obc_N_vVel_sd                =  -6.0229088351517E-24
(PID.TID 0000.0001) %MON obc_N_vVel_Int               =   9.9757187669818E+02
(PID.TID 0000.0001) // =======================================================
(PID.TID 0000.0001) // End OBCS MONITOR field statistics
(PID.TID 0000.0001) // =======================================================
 cg2d: Sum(rhs),rhsMax =   4.51161460684798E+00  2.99942925330408E+02
(PID.TID 0000.0001)      cg2d_init_res =   7.96743155891621E-06
(PID.TID 0000.0001)      cg2d_iters(min,last) =      -1      82
(PID.TID 0000.0001)      cg2d_last_res =   9.96186854509794E-12
(PID.TID 0000.0001) // =======================================================
(PID.TID 0000.0001) // Begin MONITOR dynamic field statistics
(PID.TID 0000.0001) // =======================================================
(PID.TID 0000.0001) %MON time_tsnumber                =                  1166
(PID.TID 0000.0001) %MON time_secondsf                =   1.1660000000000E+05
(PID.TID 0000.0001) %MON dynstat_eta_max              =   5.7968844357635E+00
(PID.TID 0000.0001) %MON dynstat_eta_min              =  -1.4199773301542E+01
(PID.TID 0000.0001) %MON dynstat_eta_mean             =  -2.5059757095211E+00
(PID.TID 0000.0001) %MON dynstat_eta_sd               =   4.9506387166741E+00
(PID.TID 0000.0001) %MON dynstat_eta_del2             =   2.0715524365832E-01
(PID.TID 0000.0001) %MON dynstat_uvel_max             =   6.8390019830815E-03
(PID.TID 0000.0001) %MON dynstat_uvel_min             =  -3.0978773087188E-02
(PID.TID 0000.0001) %MON dynstat_uvel_mean            =  -1.1208662995840E-07
(PID.TID 0000.0001) %MON dynstat_uvel_sd              =   9.0081489987805E-04
(PID.TID 0000.0001) %MON dynstat_uvel_del2            =   1.3183052538688E-06
(PID.TID 0000.0001) %MON dynstat_vvel_max             =   2.3542051469379E-02
(PID.TID 0000.0001) %MON dynstat_vvel_min             =  -9.9941708300868E-03
(PID.TID 0000.0001) %MON dynstat_vvel_mean            =   1.5430125919136E-05
(PID.TID 0000.0001) %MON dynstat_vvel_sd              =   5.2262217406231E-04
(PID.TID 0000.0001) %MON dynstat_vvel_del2            =   1.0550711332672E-06
(PID.TID 0000.0001) %MON dynstat_wvel_max             =   1.2122380330853E-03
(PID.TID 0000.0001) %MON dynstat_wvel_min             =  -1.1692917425551E-03
(PID.TID 0000.0001) %MON dynstat_wvel_mean            =   7.3988561231851E-09
(PID.TID 0000.0001) %MON dynstat_wvel_sd              =   2.0576407452814E-05
(PID.TID 0000.0001) %MON dynstat_wvel_del2            =   8.5705160094852E-08
(PID.TID 0000.0001) %MON dynstat_theta_max            =   1.2000000000000E+00
(PID.TID 0000.0001) %MON dynstat_theta_min            =  -1.0000000000000E+00
(PID.TID 0000.0001) %MON dynstat_theta_mean           =   5.6863331329685E-01
(PID.TID 0000.0001) %MON dynstat_theta_sd             =   8.6832994186796E-01
(PID.TID 0000.0001) %MON dynstat_theta_del2           =   3.3846407258811E-06
(PID.TID 0000.0001) %MON dynstat_salt_max             =   3.4700000000000E+01
(PID.TID 0000.0001) %MON dynstat_salt_min             =   3.4000000000000E+01
(PID.TID 0000.0001) %MON dynstat_salt_mean            =   3.4499067483571E+01
(PID.TID 0000.0001) %MON dynstat_salt_sd              =   2.7627021535588E-01
(PID.TID 0000.0001) %MON dynstat_salt_del2            =   1.3376065245626E-06
(PID.TID 0000.0001) %MON advcfl_uvel_max              =   3.0978773087188E-03
(PID.TID 0000.0001) %MON advcfl_vvel_max              =   2.3542051469379E-03
(PID.TID 0000.0001) %MON advcfl_wvel_max              =   6.0611901654263E-03
(PID.TID 0000.0001) %MON advcfl_W_hf_max              =   6.0611901654263E-03
(PID.TID 0000.0001) %MON pe_b_mean                    =  -8.3036634043639E-01
(PID.TID 0000.0001) %MON ke_max                       =   3.5278390894172E-04
(PID.TID 0000.0001) %MON ke_mean                      =   5.3436867353384E-07
(PID.TID 0000.0001) %MON ke_vol                       =   4.2724745530557E+12
(PID.TID 0000.0001) // =======================================================
(PID.TID 0000.0001) // End MONITOR dynamic field statistics
(PID.TID 0000.0001) // =======================================================
(PID.TID 0000.0001) // =======================================================
(PID.TID 0000.0001) // Begin OBCS MONITOR field statistics
(PID.TID 0000.0001) // =======================================================
(PID.TID 0000.0001) %MON obc_N_vVel_max               =   1.5117822347270E-05
(PID.TID 0000.0001) %MON obc_N_vVel_min               =   1.5117822347269E-05
(PID.TID 0000.0001) %MON obc_N_vVel_mean              =   1.5117822347270E-05
(PID.TID 0000.0001) %MON obc_N_vVel_sd                =  -1.7344943469471E-23
(PID.TID 0000.0001) %MON obc_N_vVel_Int               =   9.9777627491980E+02
(PID.TID 0000.0001) // =======================================================
(PID.TID 0000.0001) // End OBCS MONITOR field statistics
(PID.TID 0000.0001) // =======================================================
 cg2d: Sum(rhs),rhsMax =   4.51162818504613E+00  2.99943003362173E+02
(PID.TID 0000.0001)      cg2d_init_res =   7.95950103114553E-06
(PID.TID 0000.0001)      cg2d_iters(min,last) =      -1      82
(PID.TID 0000.0001)      cg2d_last_res =   9.94842282525249E-12
(PID.TID 0000.0001) // =======================================================
(PID.TID 0000.0001) // Begin MONITOR dynamic field statistics
(PID.TID 0000.0001) // =======================================================
(PID.TID 0000.0001) %MON time_tsnumber                =                  1167
(PID.TID 0000.0001) %MON time_secondsf                =   1.1670000000000E+05
(PID.TID 0000.0001) %MON dynstat_eta_max              =   5.7968646560731E+00
(PID.TID 0000.0001) %MON dynstat_eta_min              =  -1.4199787851335E+01
(PID.TID 0000.0001) %MON dynstat_eta_mean             =  -2.5059839034744E+00
(PID.TID 0000.0001) %MON dynstat_eta_sd               =   4.9506417841102E+00
(PID.TID 0000.0001) %MON dynstat_eta_del2             =   2.0715527993791E-01
(PID.TID 0000.0001) %MON dynstat_uvel_max             =   6.8549898112238E-03
(PID.TID 0000.0001) %MON dynstat_uvel_min             =  -3.1054604513457E-02
(PID.TID 0000.0001) %MON dynstat_uvel_mean            =  -1.1182386333869E-07
(PID.TID 0000.0001) %MON dynstat_uvel_sd              =   9.0293935079930E-04
(PID.TID 0000.0001) %MON dynstat_uvel_del2            =   1.3214590689121E-06
(PID.TID 0000.0001) %MON dynstat_vvel_max             =   2.3590396793345E-02
(PID.TID 0000.0001) %MON dynstat_vvel_min             =  -1.0020350675687E-02
(PID.TID 0000.0001) %MON dynstat_vvel_mean            =   1.5425404561117E-05
(PID.TID 0000.0001) %MON dynstat_vvel_sd              =   5.2361936516121E-04
(PID.TID 0000.0001) %MON dynstat_vvel_del2            =   1.0571898161634E-06
(PID.TID 0000.0001) %MON dynstat_wvel_max             =   1.2150433529392E-03
(PID.TID 0000.0001) %MON dynstat_wvel_min             =  -1.1719448418185E-03
(PID.TID 0000.0001) %MON dynstat_wvel_mean            =   7.3562113943500E-09
(PID.TID 0000.0001) %MON dynstat_wvel_sd              =   2.0564876494206E-05
(PID.TID 0000.0001) %MON dynstat_wvel_del2            =   8.5634671085741E-08
(PID.TID 0000.0001) %MON dynstat_theta_max            =   1.2000000000000E+00
(PID.TID 0000.0001) %MON dynstat_theta_min            =  -1.0000000000000E+00
(PID.TID 0000.0001) %MON dynstat_theta_mean           =   5.6863228726162E-01
(PID.TID 0000.0001) %MON dynstat_theta_sd             =   8.6832938756631E-01
(PID.TID 0000.0001) %MON dynstat_theta_del2           =   3.3915707906938E-06
(PID.TID 0000.0001) %MON dynstat_salt_max             =   3.4700000000000E+01
(PID.TID 0000.0001) %MON dynstat_salt_min             =   3.4000000000000E+01
(PID.TID 0000.0001) %MON dynstat_salt_mean            =   3.4499067072921E+01
(PID.TID 0000.0001) %MON dynstat_salt_sd              =   2.7627000197043E-01
(PID.TID 0000.0001) %MON dynstat_salt_del2            =   1.3403678265804E-06
(PID.TID 0000.0001) %MON advcfl_uvel_max              =   3.1054604513457E-03
(PID.TID 0000.0001) %MON advcfl_vvel_max              =   2.3590396793345E-03
(PID.TID 0000.0001) %MON advcfl_wvel_max              =   6.0752167646960E-03
(PID.TID 0000.0001) %MON advcfl_W_hf_max              =   6.0752167646960E-03
(PID.TID 0000.0001) %MON pe_b_mean                    =  -8.3036830167265E-01
(PID.TID 0000.0001) %MON ke_max                       =   3.5462100435985E-04
(PID.TID 0000.0001) %MON ke_mean                      =   5.3676824144813E-07
(PID.TID 0000.0001) %MON ke_vol                       =   4.2724745042854E+12
(PID.TID 0000.0001) // =======================================================
(PID.TID 0000.0001) // End MONITOR dynamic field statistics
(PID.TID 0000.0001) // =======================================================
(PID.TID 0000.0001) // =======================================================
(PID.TID 0000.0001) // Begin OBCS MONITOR field statistics
(PID.TID 0000.0001) // =======================================================
(PID.TID 0000.0001) %MON obc_N_vVel_max               =   1.5116544873356E-05
(PID.TID 0000.0001) %MON obc_N_vVel_min               =   1.5116544873356E-05
(PID.TID 0000.0001) %MON obc_N_vVel_mean              =   1.5116544873356E-05
(PID.TID 0000.0001) %MON obc_N_vVel_sd                =  -2.2876713815920E-23
(PID.TID 0000.0001) %MON obc_N_vVel_Int               =   9.9769196164152E+02
(PID.TID 0000.0001) // =======================================================
(PID.TID 0000.0001) // End OBCS MONITOR field statistics
(PID.TID 0000.0001) // =======================================================
 cg2d: Sum(rhs),rhsMax =   4.51164172778502E+00  2.99943081195086E+02
(PID.TID 0000.0001)      cg2d_init_res =   7.94962846597223E-06
(PID.TID 0000.0001)      cg2d_iters(min,last) =      -1      82
(PID.TID 0000.0001)      cg2d_last_res =   9.93522842591999E-12
(PID.TID 0000.0001) // =======================================================
(PID.TID 0000.0001) // Begin MONITOR dynamic field statistics
(PID.TID 0000.0001) // =======================================================
(PID.TID 0000.0001) %MON time_tsnumber                =                  1168
(PID.TID 0000.0001) %MON time_secondsf                =   1.1680000000000E+05
(PID.TID 0000.0001) %MON dynstat_eta_max              =   5.7968449134889E+00
(PID.TID 0000.0001) %MON dynstat_eta_min              =  -1.4199802360653E+01
(PID.TID 0000.0001) %MON dynstat_eta_mean             =  -2.5059920760744E+00
(PID.TID 0000.0001) %MON dynstat_eta_sd               =   4.9506448413729E+00
(PID.TID 0000.0001) %MON dynstat_eta_del2             =   2.0715531627133E-01
(PID.TID 0000.0001) %MON dynstat_uvel_max             =   6.8710069700195E-03
(PID.TID 0000.0001) %MON dynstat_uvel_min             =  -3.1130557608386E-02
(PID.TID 0000.0001) %MON dynstat_uvel_mean            =  -1.1156560892230E-07
(PID.TID 0000.0001) %MON dynstat_uvel_sd              =   9.0506796153640E-04
(PID.TID 0000.0001) %MON dynstat_uvel_del2            =   1.3246207679469E-06
(PID.TID 0000.0001) %MON dynstat_vvel_max             =   2.3638775266549E-02
(PID.TID 0000.0001) %MON dynstat_vvel_min             =  -1.0046592495474E-02
(PID.TID 0000.0001) %MON dynstat_vvel_mean            =   1.5415889430185E-05
(PID.TID 0000.0001) %MON dynstat_vvel_sd              =   5.2461982303834E-04
(PID.TID 0000.0001) %MON dynstat_vvel_del2            =   1.0593275859748E-06
(PID.TID 0000.0001) %MON dynstat_wvel_max             =   1.2178518462191E-03
(PID.TID 0000.0001) %MON dynstat_wvel_min             =  -1.1746009658428E-03
(PID.TID 0000.0001) %MON dynstat_wvel_mean            =   7.3089560927054E-09
(PID.TID 0000.0001) %MON dynstat_wvel_sd              =   2.0562282689663E-05
(PID.TID 0000.0001) %MON dynstat_wvel_del2            =   8.5604731197059E-08
(PID.TID 0000.0001) %MON dynstat_theta_max            =   1.2000000000000E+00
(PID.TID 0000.0001) %MON dynstat_theta_min            =  -1.0000000000000E+00
(PID.TID 0000.0001) %MON dynstat_theta_mean           =   5.6863125942484E-01
(PID.TID 0000.0001) %MON dynstat_theta_sd             =   8.6832883230973E-01
(PID.TID 0000.0001) %MON dynstat_theta_del2           =   3.3985043836034E-06
(PID.TID 0000.0001) %MON dynstat_salt_max             =   3.4700000000000E+01
(PID.TID 0000.0001) %MON dynstat_salt_min             =   3.4000000000000E+01
(PID.TID 0000.0001) %MON dynstat_salt_mean            =   3.4499066661550E+01
(PID.TID 0000.0001) %MON dynstat_salt_sd              =   2.7626978821768E-01
(PID.TID 0000.0001) %MON dynstat_salt_del2            =   1.3431323990162E-06
(PID.TID 0000.0001) %MON advcfl_uvel_max              =   3.1130557608386E-03
(PID.TID 0000.0001) %MON advcfl_vvel_max              =   2.3638775266549E-03
(PID.TID 0000.0001) %MON advcfl_wvel_max              =   6.0892592310955E-03
(PID.TID 0000.0001) %MON advcfl_W_hf_max              =   6.0892592310955E-03
(PID.TID 0000.0001) %MON pe_b_mean                    =  -8.3037025479800E-01
(PID.TID 0000.0001) %MON ke_max                       =   3.5646631655909E-04
(PID.TID 0000.0001) %MON ke_mean                      =   5.3917855814521E-07
(PID.TID 0000.0001) %MON ke_vol                       =   4.2724744556134E+12
(PID.TID 0000.0001) // =======================================================
(PID.TID 0000.0001) // End MONITOR dynamic field statistics
(PID.TID 0000.0001) // =======================================================
(PID.TID 0000.0001) // =======================================================
(PID.TID 0000.0001) // Begin OBCS MONITOR field statistics
(PID.TID 0000.0001) // =======================================================
(PID.TID 0000.0001) %MON obc_N_vVel_max               =   1.5110942650622E-05
(PID.TID 0000.0001) %MON obc_N_vVel_min               =   1.5110942650622E-05
(PID.TID 0000.0001) %MON obc_N_vVel_mean              =   1.5110942650622E-05
(PID.TID 0000.0001) %MON obc_N_vVel_sd                =  -2.3522948669477E-24
(PID.TID 0000.0001) %MON obc_N_vVel_Int               =   9.9732221494104E+02
(PID.TID 0000.0001) // =======================================================
(PID.TID 0000.0001) // End OBCS MONITOR field statistics
(PID.TID 0000.0001) // =======================================================
 cg2d: Sum(rhs),rhsMax =   4.51165522736001E+00  2.99943158778893E+02
(PID.TID 0000.0001)      cg2d_init_res =   7.93820212604799E-06
(PID.TID 0000.0001)      cg2d_iters(min,last) =      -1      82
(PID.TID 0000.0001)      cg2d_last_res =   9.92251407505042E-12
(PID.TID 0000.0001) // =======================================================
(PID.TID 0000.0001) // Begin MONITOR dynamic field statistics
(PID.TID 0000.0001) // =======================================================
(PID.TID 0000.0001) %MON time_tsnumber                =                  1169
(PID.TID 0000.0001) %MON time_secondsf                =   1.1690000000000E+05
(PID.TID 0000.0001) %MON dynstat_eta_max              =   5.7968252164340E+00
(PID.TID 0000.0001) %MON dynstat_eta_min              =  -1.4199816821525E+01
(PID.TID 0000.0001) %MON dynstat_eta_mean             =  -2.5060002226216E+00
(PID.TID 0000.0001) %MON dynstat_eta_sd               =   4.9506478870704E+00
(PID.TID 0000.0001) %MON dynstat_eta_del2             =   2.0715535265751E-01
(PID.TID 0000.0001) %MON dynstat_uvel_max             =   6.8870534724859E-03
(PID.TID 0000.0001) %MON dynstat_uvel_min             =  -3.1206632504947E-02
(PID.TID 0000.0001) %MON dynstat_uvel_mean            =  -1.1131495179182E-07
(PID.TID 0000.0001) %MON dynstat_uvel_sd              =   9.0720074187213E-04
(PID.TID 0000.0001) %MON dynstat_uvel_del2            =   1.3277903566799E-06
(PID.TID 0000.0001) %MON dynstat_vvel_max             =   2.3687186713758E-02
(PID.TID 0000.0001) %MON dynstat_vvel_min             =  -1.0072896360292E-02
(PID.TID 0000.0001) %MON dynstat_vvel_mean            =   1.5401755188332E-05
(PID.TID 0000.0001) %MON dynstat_vvel_sd              =   5.2562397079595E-04
(PID.TID 0000.0001) %MON dynstat_vvel_del2            =   1.0614870105748E-06
(PID.TID 0000.0001) %MON dynstat_wvel_max             =   1.2206635037113E-03
(PID.TID 0000.0001) %MON dynstat_wvel_min             =  -1.1772601060920E-03
(PID.TID 0000.0001) %MON dynstat_wvel_mean            =   7.2578274352179E-09
(PID.TID 0000.0001) %MON dynstat_wvel_sd              =   2.0570787139825E-05
(PID.TID 0000.0001) %MON dynstat_wvel_del2            =   8.5625952231495E-08
(PID.TID 0000.0001) %MON dynstat_theta_max            =   1.2000000000000E+00
(PID.TID 0000.0001) %MON dynstat_theta_min            =  -1.0000000000000E+00
(PID.TID 0000.0001) %MON dynstat_theta_mean           =   5.6863022978163E-01
(PID.TID 0000.0001) %MON dynstat_theta_sd             =   8.6832827609806E-01
(PID.TID 0000.0001) %MON dynstat_theta_del2           =   3.4054395263874E-06
(PID.TID 0000.0001) %MON dynstat_salt_max             =   3.4700000000000E+01
(PID.TID 0000.0001) %MON dynstat_salt_min             =   3.4000000000000E+01
(PID.TID 0000.0001) %MON dynstat_salt_mean            =   3.4499066249455E+01
(PID.TID 0000.0001) %MON dynstat_salt_sd              =   2.7626957409754E-01
(PID.TID 0000.0001) %MON dynstat_salt_del2            =   1.3458997667609E-06
(PID.TID 0000.0001) %MON advcfl_uvel_max              =   3.1206632504947E-03
(PID.TID 0000.0001) %MON advcfl_vvel_max              =   2.3687186713758E-03
(PID.TID 0000.0001) %MON advcfl_wvel_max              =   6.1033175185564E-03
(PID.TID 0000.0001) %MON advcfl_W_hf_max              =   6.1033175185564E-03
(PID.TID 0000.0001) %MON pe_b_mean                    =  -8.3037219864435E-01
(PID.TID 0000.0001) %MON ke_max                       =   3.5831987723221E-04
(PID.TID 0000.0001) %MON ke_mean                      =   5.4159989335217E-07
(PID.TID 0000.0001) %MON ke_vol                       =   4.2724744070681E+12
(PID.TID 0000.0001) // =======================================================
(PID.TID 0000.0001) // End MONITOR dynamic field statistics
(PID.TID 0000.0001) // =======================================================
(PID.TID 0000.0001) // =======================================================
(PID.TID 0000.0001) // Begin OBCS MONITOR field statistics
(PID.TID 0000.0001) // =======================================================
(PID.TID 0000.0001) %MON obc_N_vVel_max               =   1.5101128860047E-05
(PID.TID 0000.0001) %MON obc_N_vVel_min               =   1.5101128860046E-05
(PID.TID 0000.0001) %MON obc_N_vVel_mean              =   1.5101128860047E-05
(PID.TID 0000.0001) %MON obc_N_vVel_sd                =  -1.0391456445197E-23
(PID.TID 0000.0001) %MON obc_N_vVel_Int               =   9.9667450476308E+02
(PID.TID 0000.0001) // =======================================================
(PID.TID 0000.0001) // End OBCS MONITOR field statistics
(PID.TID 0000.0001) // =======================================================
 cg2d: Sum(rhs),rhsMax =   4.51166867631727E+00  2.99943236069959E+02
(PID.TID 0000.0001)      cg2d_init_res =   7.92561050873899E-06
(PID.TID 0000.0001)      cg2d_iters(min,last) =      -1      82
(PID.TID 0000.0001)      cg2d_last_res =   9.91059005846864E-12
(PID.TID 0000.0001) // =======================================================
(PID.TID 0000.0001) // Begin MONITOR dynamic field statistics
(PID.TID 0000.0001) // =======================================================
(PID.TID 0000.0001) %MON time_tsnumber                =                  1170
(PID.TID 0000.0001) %MON time_secondsf                =   1.1700000000000E+05
(PID.TID 0000.0001) %MON dynstat_eta_max              =   5.7968055728699E+00
(PID.TID 0000.0001) %MON dynstat_eta_min              =  -1.4199831226457E+01
(PID.TID 0000.0001) %MON dynstat_eta_mean             =  -2.5060083386112E+00
(PID.TID 0000.0001) %MON dynstat_eta_sd               =   4.9506509199295E+00
(PID.TID 0000.0001) %MON dynstat_eta_del2             =   2.0715538909552E-01
(PID.TID 0000.0001) %MON dynstat_uvel_max             =   6.9031293272666E-03
(PID.TID 0000.0001) %MON dynstat_uvel_min             =  -3.1282829340674E-02
(PID.TID 0000.0001) %MON dynstat_uvel_mean            =  -1.1107501534505E-07
(PID.TID 0000.0001) %MON dynstat_uvel_sd              =   9.0933770213636E-04
(PID.TID 0000.0001) %MON dynstat_uvel_del2            =   1.3309678437357E-06
(PID.TID 0000.0001) %MON dynstat_vvel_max             =   2.3735630972607E-02
(PID.TID 0000.0001) %MON dynstat_vvel_min             =  -1.0099262328028E-02
(PID.TID 0000.0001) %MON dynstat_vvel_mean            =   1.5383244274624E-05
(PID.TID 0000.0001) %MON dynstat_vvel_sd              =   5.2663210464374E-04
(PID.TID 0000.0001) %MON dynstat_vvel_del2            =   1.0636695655099E-06
(PID.TID 0000.0001) %MON dynstat_wvel_max             =   1.2234783160711E-03
(PID.TID 0000.0001) %MON dynstat_wvel_min             =  -1.1799222547347E-03
(PID.TID 0000.0001) %MON dynstat_wvel_mean            =   7.2036172140791E-09
(PID.TID 0000.0001) %MON dynstat_wvel_sd              =   2.0591832074875E-05
(PID.TID 0000.0001) %MON dynstat_wvel_del2            =   8.5705528464241E-08
(PID.TID 0000.0001) %MON dynstat_theta_max            =   1.2000000000000E+00
(PID.TID 0000.0001) %MON dynstat_theta_min            =  -1.0000000000000E+00
(PID.TID 0000.0001) %MON dynstat_theta_mean           =   5.6862919832711E-01
(PID.TID 0000.0001) %MON dynstat_theta_sd             =   8.6832771893045E-01
(PID.TID 0000.0001) %MON dynstat_theta_del2           =   3.4123752445540E-06
(PID.TID 0000.0001) %MON dynstat_salt_max             =   3.4700000000000E+01
(PID.TID 0000.0001) %MON dynstat_salt_min             =   3.4000000000000E+01
(PID.TID 0000.0001) %MON dynstat_salt_mean            =   3.4499065836634E+01
(PID.TID 0000.0001) %MON dynstat_salt_sd              =   2.7626935960974E-01
(PID.TID 0000.0001) %MON dynstat_salt_del2            =   1.3486697156054E-06
(PID.TID 0000.0001) %MON advcfl_uvel_max              =   3.1282829340674E-03
(PID.TID 0000.0001) %MON advcfl_vvel_max              =   2.3735630972607E-03
(PID.TID 0000.0001) %MON advcfl_wvel_max              =   6.1173915803557E-03
(PID.TID 0000.0001) %MON advcfl_W_hf_max              =   6.1173915803557E-03
(PID.TID 0000.0001) %MON pe_b_mean                    =  -8.3037413211013E-01
(PID.TID 0000.0001) %MON ke_max                       =   3.6018171825128E-04
(PID.TID 0000.0001) %MON ke_mean                      =   5.4403245342469E-07
(PID.TID 0000.0001) %MON ke_vol                       =   4.2724743586776E+12
(PID.TID 0000.0001) // =======================================================
(PID.TID 0000.0001) // End MONITOR dynamic field statistics
(PID.TID 0000.0001) // =======================================================
(PID.TID 0000.0001) // =======================================================
(PID.TID 0000.0001) // Begin OBCS MONITOR field statistics
(PID.TID 0000.0001) // =======================================================
(PID.TID 0000.0001) %MON obc_N_vVel_max               =   1.5087278597002E-05
(PID.TID 0000.0001) %MON obc_N_vVel_min               =   1.5087278597001E-05
(PID.TID 0000.0001) %MON obc_N_vVel_mean              =   1.5087278597002E-05
(PID.TID 0000.0001) %MON obc_N_vVel_sd                =  -1.6621160433487E-23
(PID.TID 0000.0001) %MON obc_N_vVel_Int               =   9.9576038740211E+02
(PID.TID 0000.0001) // =======================================================
(PID.TID 0000.0001) // End OBCS MONITOR field statistics
(PID.TID 0000.0001) // =======================================================
 cg2d: Sum(rhs),rhsMax =   4.51168206738466E+00  2.99943313043679E+02
(PID.TID 0000.0001)      cg2d_init_res =   7.91223573647773E-06
(PID.TID 0000.0001)      cg2d_iters(min,last) =      -1      82
(PID.TID 0000.0001)      cg2d_last_res =   9.89976559404270E-12
(PID.TID 0000.0001) // =======================================================
(PID.TID 0000.0001) // Begin MONITOR dynamic field statistics
(PID.TID 0000.0001) // =======================================================
(PID.TID 0000.0001) %MON time_tsnumber                =                  1171
(PID.TID 0000.0001) %MON time_secondsf                =   1.1710000000000E+05
(PID.TID 0000.0001) %MON dynstat_eta_max              =   5.7967859901927E+00
(PID.TID 0000.0001) %MON dynstat_eta_min              =  -1.4199845568539E+01
(PID.TID 0000.0001) %MON dynstat_eta_mean             =  -2.5060164197984E+00
(PID.TID 0000.0001) %MON dynstat_eta_sd               =   4.9506539388142E+00
(PID.TID 0000.0001) %MON dynstat_eta_del2             =   2.0715542558461E-01
(PID.TID 0000.0001) %MON dynstat_uvel_max             =   6.9192345385289E-03
(PID.TID 0000.0001) %MON dynstat_uvel_min             =  -3.1359148257491E-02
(PID.TID 0000.0001) %MON dynstat_uvel_mean            =  -1.1084891524222E-07
(PID.TID 0000.0001) %MON dynstat_uvel_sd              =   9.1147885321857E-04
(PID.TID 0000.0001) %MON dynstat_uvel_del2            =   1.3341532409742E-06
(PID.TID 0000.0001) %MON dynstat_vvel_max             =   2.3784107892876E-02
(PID.TID 0000.0001) %MON dynstat_vvel_min             =  -1.0125690444506E-02
(PID.TID 0000.0001) %MON dynstat_vvel_mean            =   1.5360663160674E-05
(PID.TID 0000.0001) %MON dynstat_vvel_sd              =   5.2764437920760E-04
(PID.TID 0000.0001) %MON dynstat_vvel_del2            =   1.0658755569799E-06
(PID.TID 0000.0001) %MON dynstat_wvel_max             =   1.2262962738107E-03
(PID.TID 0000.0001) %MON dynstat_wvel_min             =  -1.1825874045777E-03
(PID.TID 0000.0001) %MON dynstat_wvel_mean            =   7.1471627623200E-09
(PID.TID 0000.0001) %MON dynstat_wvel_sd              =   2.0626052485415E-05
(PID.TID 0000.0001) %MON dynstat_wvel_del2            =   8.5846744868741E-08
(PID.TID 0000.0001) %MON dynstat_theta_max            =   1.2000000000000E+00
(PID.TID 0000.0001) %MON dynstat_theta_min            =  -1.0000000000000E+00
(PID.TID 0000.0001) %MON dynstat_theta_mean           =   5.6862816505643E-01
(PID.TID 0000.0001) %MON dynstat_theta_sd             =   8.6832716080299E-01
(PID.TID 0000.0001) %MON dynstat_theta_del2           =   3.4193116600562E-06
(PID.TID 0000.0001) %MON dynstat_salt_max             =   3.4700000000000E+01
(PID.TID 0000.0001) %MON dynstat_salt_min             =   3.4000000000000E+01
(PID.TID 0000.0001) %MON dynstat_salt_mean            =   3.4499065423086E+01
(PID.TID 0000.0001) %MON dynstat_salt_sd              =   2.7626914475278E-01
(PID.TID 0000.0001) %MON dynstat_salt_del2            =   1.3514423165464E-06
(PID.TID 0000.0001) %MON advcfl_uvel_max              =   3.1359148257491E-03
(PID.TID 0000.0001) %MON advcfl_vvel_max              =   2.3784107892876E-03
(PID.TID 0000.0001) %MON advcfl_wvel_max              =   6.1314813690534E-03
(PID.TID 0000.0001) %MON advcfl_W_hf_max              =   6.1314813690534E-03
(PID.TID 0000.0001) %MON pe_b_mean                    =  -8.3037605417623E-01
(PID.TID 0000.0001) %MON ke_max                       =   3.6205187166553E-04
(PID.TID 0000.0001) %MON ke_mean                      =   5.4647637291439E-07
(PID.TID 0000.0001) %MON ke_vol                       =   4.2724743104686E+12
(PID.TID 0000.0001) // =======================================================
(PID.TID 0000.0001) // End MONITOR dynamic field statistics
(PID.TID 0000.0001) // =======================================================
(PID.TID 0000.0001) // =======================================================
(PID.TID 0000.0001) // Begin OBCS MONITOR field statistics
(PID.TID 0000.0001) // =======================================================
(PID.TID 0000.0001) %MON obc_N_vVel_max               =   1.5069626003873E-05
(PID.TID 0000.0001) %MON obc_N_vVel_min               =   1.5069626003873E-05
(PID.TID 0000.0001) %MON obc_N_vVel_mean              =   1.5069626003873E-05
(PID.TID 0000.0001) %MON obc_N_vVel_sd                =   3.1832314562052E-12
(PID.TID 0000.0001) %MON obc_N_vVel_Int               =   9.9459531625561E+02
(PID.TID 0000.0001) // =======================================================
(PID.TID 0000.0001) // End OBCS MONITOR field statistics
(PID.TID 0000.0001) // =======================================================
 cg2d: Sum(rhs),rhsMax =   4.51169539382867E+00  2.99943389678165E+02
(PID.TID 0000.0001)      cg2d_init_res =   7.89844805905065E-06
(PID.TID 0000.0001)      cg2d_iters(min,last) =      -1      82
(PID.TID 0000.0001)      cg2d_last_res =   9.89034189031354E-12
(PID.TID 0000.0001) // =======================================================
(PID.TID 0000.0001) // Begin MONITOR dynamic field statistics
(PID.TID 0000.0001) // =======================================================
(PID.TID 0000.0001) %MON time_tsnumber                =                  1172
(PID.TID 0000.0001) %MON time_secondsf                =   1.1720000000000E+05
(PID.TID 0000.0001) %MON dynstat_eta_max              =   5.7967664751159E+00
(PID.TID 0000.0001) %MON dynstat_eta_min              =  -1.4199859841539E+01
(PID.TID 0000.0001) %MON dynstat_eta_mean             =  -2.5060244622599E+00
(PID.TID 0000.0001) %MON dynstat_eta_sd               =   4.9506569427415E+00
(PID.TID 0000.0001) %MON dynstat_eta_del2             =   2.0715546212413E-01
(PID.TID 0000.0001) %MON dynstat_uvel_max             =   6.9353691066887E-03
(PID.TID 0000.0001) %MON dynstat_uvel_min             =  -3.1435589400947E-02
(PID.TID 0000.0001) %MON dynstat_uvel_mean            =  -1.1063969031219E-07
(PID.TID 0000.0001) %MON dynstat_uvel_sd              =   9.1362420656189E-04
(PID.TID 0000.0001) %MON dynstat_uvel_del2            =   1.3373465634307E-06
(PID.TID 0000.0001) %MON dynstat_vvel_max             =   2.3832617335586E-02
(PID.TID 0000.0001) %MON dynstat_vvel_min             =  -1.0152180744646E-02
(PID.TID 0000.0001) %MON dynstat_vvel_mean            =   1.5334377663523E-05
(PID.TID 0000.0001) %MON dynstat_vvel_sd              =   5.2866080181461E-04
(PID.TID 0000.0001) %MON dynstat_vvel_del2            =   1.0681041221611E-06
(PID.TID 0000.0001) %MON dynstat_wvel_max             =   1.2291173673287E-03
(PID.TID 0000.0001) %MON dynstat_wvel_min             =  -1.1852555489854E-03
(PID.TID 0000.0001) %MON dynstat_wvel_mean            =   7.0893305685483E-09
(PID.TID 0000.0001) %MON dynstat_wvel_sd              =   2.0673245024643E-05
(PID.TID 0000.0001) %MON dynstat_wvel_del2            =   8.6048787071658E-08
(PID.TID 0000.0001) %MON dynstat_theta_max            =   1.2000000000000E+00
(PID.TID 0000.0001) %MON dynstat_theta_min            =  -1.0000000000000E+00
(PID.TID 0000.0001) %MON dynstat_theta_mean           =   5.6862712996481E-01
(PID.TID 0000.0001) %MON dynstat_theta_sd             =   8.6832660171090E-01
(PID.TID 0000.0001) %MON dynstat_theta_del2           =   3.4262500229510E-06
(PID.TID 0000.0001) %MON dynstat_salt_max             =   3.4700000000000E+01
(PID.TID 0000.0001) %MON dynstat_salt_min             =   3.4000000000000E+01
(PID.TID 0000.0001) %MON dynstat_salt_mean            =   3.4499065008809E+01
(PID.TID 0000.0001) %MON dynstat_salt_sd              =   2.7626892952536E-01
(PID.TID 0000.0001) %MON dynstat_salt_del2            =   1.3542179324745E-06
(PID.TID 0000.0001) %MON advcfl_uvel_max              =   3.1435589400947E-03
(PID.TID 0000.0001) %MON advcfl_vvel_max              =   2.3832617335586E-03
(PID.TID 0000.0001) %MON advcfl_wvel_max              =   6.1455868366433E-03
(PID.TID 0000.0001) %MON advcfl_W_hf_max              =   6.1455868366433E-03
(PID.TID 0000.0001) %MON pe_b_mean                    =  -8.3037796392072E-01
(PID.TID 0000.0001) %MON ke_max                       =   3.6393036968620E-04
(PID.TID 0000.0001) %MON ke_mean                      =   5.4893171075156E-07
(PID.TID 0000.0001) %MON ke_vol                       =   4.2724742624664E+12
(PID.TID 0000.0001) // =======================================================
(PID.TID 0000.0001) // End MONITOR dynamic field statistics
(PID.TID 0000.0001) // =======================================================
(PID.TID 0000.0001) // =======================================================
(PID.TID 0000.0001) // Begin OBCS MONITOR field statistics
(PID.TID 0000.0001) // =======================================================
(PID.TID 0000.0001) %MON obc_N_vVel_max               =   1.5048460920068E-05
(PID.TID 0000.0001) %MON obc_N_vVel_min               =   1.5048460920068E-05
(PID.TID 0000.0001) %MON obc_N_vVel_mean              =   1.5048460920068E-05
(PID.TID 0000.0001) %MON obc_N_vVel_sd                =   3.2075004082039E-12
(PID.TID 0000.0001) %MON obc_N_vVel_Int               =   9.9319842072446E+02
(PID.TID 0000.0001) // =======================================================
(PID.TID 0000.0001) // End OBCS MONITOR field statistics
(PID.TID 0000.0001) // =======================================================
 cg2d: Sum(rhs),rhsMax =   4.51170864958669E+00  2.99943465952238E+02
(PID.TID 0000.0001)      cg2d_init_res =   7.88459745931451E-06
(PID.TID 0000.0001)      cg2d_iters(min,last) =      -1      82
(PID.TID 0000.0001)      cg2d_last_res =   9.88259727163425E-12
(PID.TID 0000.0001) // =======================================================
(PID.TID 0000.0001) // Begin MONITOR dynamic field statistics
(PID.TID 0000.0001) // =======================================================
(PID.TID 0000.0001) %MON time_tsnumber                =                  1173
(PID.TID 0000.0001) %MON time_secondsf                =   1.1730000000000E+05
(PID.TID 0000.0001) %MON dynstat_eta_max              =   5.7967470330095E+00
(PID.TID 0000.0001) %MON dynstat_eta_min              =  -1.4199874039995E+01
(PID.TID 0000.0001) %MON dynstat_eta_mean             =  -2.5060324624513E+00
(PID.TID 0000.0001) %MON dynstat_eta_sd               =   4.9506599308965E+00
(PID.TID 0000.0001) %MON dynstat_eta_del2             =   2.0715549871362E-01
(PID.TID 0000.0001) %MON dynstat_uvel_max             =   6.9515330288183E-03
(PID.TID 0000.0001) %MON dynstat_uvel_min             =  -3.1512152919647E-02
(PID.TID 0000.0001) %MON dynstat_uvel_mean            =  -1.1045022579656E-07
(PID.TID 0000.0001) %MON dynstat_uvel_sd              =   9.1577377414356E-04
(PID.TID 0000.0001) %MON dynstat_uvel_del2            =   1.3405478294178E-06
(PID.TID 0000.0001) %MON dynstat_vvel_max             =   2.3881159171926E-02
(PID.TID 0000.0001) %MON dynstat_vvel_min             =  -1.0178733253436E-02
(PID.TID 0000.0001) %MON dynstat_vvel_mean            =   1.5304807338926E-05
(PID.TID 0000.0001) %MON dynstat_vvel_sd              =   5.2968123590428E-04
(PID.TID 0000.0001) %MON dynstat_vvel_del2            =   1.0703533056419E-06
(PID.TID 0000.0001) %MON dynstat_wvel_max             =   1.2319415868821E-03
(PID.TID 0000.0001) %MON dynstat_wvel_min             =  -1.1879266818106E-03
(PID.TID 0000.0001) %MON dynstat_wvel_mean            =   7.0310058722527E-09
(PID.TID 0000.0001) %MON dynstat_wvel_sd              =   2.0732396222061E-05
(PID.TID 0000.0001) %MON dynstat_wvel_del2            =   8.6306866463269E-08
(PID.TID 0000.0001) %MON dynstat_theta_max            =   1.2000000000000E+00
(PID.TID 0000.0001) %MON dynstat_theta_min            =  -1.0000000000000E+00
(PID.TID 0000.0001) %MON dynstat_theta_mean           =   5.6862609304758E-01
(PID.TID 0000.0001) %MON dynstat_theta_sd             =   8.6832604164957E-01
(PID.TID 0000.0001) %MON dynstat_theta_del2           =   3.4331927193733E-06
(PID.TID 0000.0001) %MON dynstat_salt_max             =   3.4700000000000E+01
(PID.TID 0000.0001) %MON dynstat_salt_min             =   3.4000000000000E+01
(PID.TID 0000.0001) %MON dynstat_salt_mean            =   3.4499064593801E+01
(PID.TID 0000.0001) %MON dynstat_salt_sd              =   2.7626871392581E-01
(PID.TID 0000.0001) %MON dynstat_salt_del2            =   1.3569971532087E-06
(PID.TID 0000.0001) %MON advcfl_uvel_max              =   3.1512152919647E-03
(PID.TID 0000.0001) %MON advcfl_vvel_max              =   2.3881159171926E-03
(PID.TID 0000.0001) %MON advcfl_wvel_max              =   6.1597079344106E-03
(PID.TID 0000.0001) %MON advcfl_W_hf_max              =   6.1597079344106E-03
(PID.TID 0000.0001) %MON pe_b_mean                    =  -8.3037986053210E-01
(PID.TID 0000.0001) %MON ke_max                       =   3.6581724467543E-04
(PID.TID 0000.0001) %MON ke_mean                      =   5.5139845118939E-07
(PID.TID 0000.0001) %MON ke_vol                       =   4.2724742146942E+12
(PID.TID 0000.0001) // =======================================================
(PID.TID 0000.0001) // End MONITOR dynamic field statistics
(PID.TID 0000.0001) // =======================================================
(PID.TID 0000.0001) // =======================================================
(PID.TID 0000.0001) // Begin OBCS MONITOR field statistics
(PID.TID 0000.0001) // =======================================================
(PID.TID 0000.0001) %MON obc_N_vVel_max               =   1.5024124186315E-05
(PID.TID 0000.0001) %MON obc_N_vVel_min               =   1.5024124186314E-05
(PID.TID 0000.0001) %MON obc_N_vVel_mean              =   1.5024124186314E-05
(PID.TID 0000.0001) %MON obc_N_vVel_sd                =   2.1808916805243E-12
(PID.TID 0000.0001) %MON obc_N_vVel_Int               =   9.9159219629675E+02
(PID.TID 0000.0001) // =======================================================
(PID.TID 0000.0001) // End OBCS MONITOR field statistics
(PID.TID 0000.0001) // =======================================================
 cg2d: Sum(rhs),rhsMax =   4.51172182921706E+00  2.99943541854818E+02
(PID.TID 0000.0001)      cg2d_init_res =   7.87100265846125E-06
(PID.TID 0000.0001)      cg2d_iters(min,last) =      -1      82
(PID.TID 0000.0001)      cg2d_last_res =   9.87680892958855E-12
(PID.TID 0000.0001) // =======================================================
(PID.TID 0000.0001) // Begin MONITOR dynamic field statistics
(PID.TID 0000.0001) // =======================================================
(PID.TID 0000.0001) %MON time_tsnumber                =                  1174
(PID.TID 0000.0001) %MON time_secondsf                =   1.1740000000000E+05
(PID.TID 0000.0001) %MON dynstat_eta_max              =   5.7967276695239E+00
(PID.TID 0000.0001) %MON dynstat_eta_min              =  -1.4199888159301E+01
(PID.TID 0000.0001) %MON dynstat_eta_mean             =  -2.5060404172575E+00
(PID.TID 0000.0001) %MON dynstat_eta_sd               =   4.9506629026427E+00
(PID.TID 0000.0001) %MON dynstat_eta_del2             =   2.0715553535281E-01
(PID.TID 0000.0001) %MON dynstat_uvel_max             =   6.9677262993011E-03
(PID.TID 0000.0001) %MON dynstat_uvel_min             =  -3.1588838964452E-02
(PID.TID 0000.0001) %MON dynstat_uvel_mean            =  -1.1028317366637E-07
(PID.TID 0000.0001) %MON dynstat_uvel_sd              =   9.1792756844070E-04
(PID.TID 0000.0001) %MON dynstat_uvel_del2            =   1.3437570601013E-06
(PID.TID 0000.0001) %MON dynstat_vvel_max             =   2.3929733282035E-02
(PID.TID 0000.0001) %MON dynstat_vvel_min             =  -1.0205347987084E-02
(PID.TID 0000.0001) %MON dynstat_vvel_mean            =   1.5272419112541E-05
(PID.TID 0000.0001) %MON dynstat_vvel_sd              =   5.3070541324023E-04
(PID.TID 0000.0001) %MON dynstat_vvel_del2            =   1.0726202054237E-06
(PID.TID 0000.0001) %MON dynstat_wvel_max             =   1.2347689226313E-03
(PID.TID 0000.0001) %MON dynstat_wvel_min             =  -1.1906007974143E-03
(PID.TID 0000.0001) %MON dynstat_wvel_mean            =   6.9730793671422E-09
(PID.TID 0000.0001) %MON dynstat_wvel_sd              =   2.0801766557079E-05
(PID.TID 0000.0001) %MON dynstat_wvel_del2            =   8.6612639617929E-08
(PID.TID 0000.0001) %MON dynstat_theta_max            =   1.2000000000000E+00
(PID.TID 0000.0001) %MON dynstat_theta_min            =  -1.0000000000000E+00
(PID.TID 0000.0001) %MON dynstat_theta_mean           =   5.6862505430022E-01
(PID.TID 0000.0001) %MON dynstat_theta_sd             =   8.6832548061270E-01
(PID.TID 0000.0001) %MON dynstat_theta_del2           =   3.4401426741682E-06
(PID.TID 0000.0001) %MON dynstat_salt_max             =   3.4700000000000E+01
(PID.TID 0000.0001) %MON dynstat_salt_min             =   3.4000000000000E+01
(PID.TID 0000.0001) %MON dynstat_salt_mean            =   3.4499064178061E+01
(PID.TID 0000.0001) %MON dynstat_salt_sd              =   2.7626849795214E-01
(PID.TID 0000.0001) %MON dynstat_salt_del2            =   1.3597808287707E-06
(PID.TID 0000.0001) %MON advcfl_uvel_max              =   3.1588838964452E-03
(PID.TID 0000.0001) %MON advcfl_vvel_max              =   2.3929733282035E-03
(PID.TID 0000.0001) %MON advcfl_wvel_max              =   6.1738446131566E-03
(PID.TID 0000.0001) %MON advcfl_W_hf_max              =   6.1738446131566E-03
(PID.TID 0000.0001) %MON pe_b_mean                    =  -8.3038174332083E-01
(PID.TID 0000.0001) %MON ke_max                       =   3.6771252912928E-04
(PID.TID 0000.0001) %MON ke_mean                      =   5.5387650940471E-07
(PID.TID 0000.0001) %MON ke_vol                       =   4.2724741671730E+12
(PID.TID 0000.0001) // =======================================================
(PID.TID 0000.0001) // End MONITOR dynamic field statistics
(PID.TID 0000.0001) // =======================================================
(PID.TID 0000.0001) // =======================================================
(PID.TID 0000.0001) // Begin OBCS MONITOR field statistics
(PID.TID 0000.0001) // =======================================================
(PID.TID 0000.0001) %MON obc_N_vVel_max               =   1.4997002513082E-05
(PID.TID 0000.0001) %MON obc_N_vVel_min               =   1.4997002513081E-05
(PID.TID 0000.0001) %MON obc_N_vVel_mean              =   1.4997002513081E-05
(PID.TID 0000.0001) %MON obc_N_vVel_sd                =   1.2659630471785E-12
(PID.TID 0000.0001) %MON obc_N_vVel_Int               =   9.8980216586337E+02
(PID.TID 0000.0001) // =======================================================
(PID.TID 0000.0001) // End OBCS MONITOR field statistics
(PID.TID 0000.0001) // =======================================================
 cg2d: Sum(rhs),rhsMax =   4.51173492801089E+00  2.99943617382778E+02
(PID.TID 0000.0001)      cg2d_init_res =   7.85795266886230E-06
(PID.TID 0000.0001)      cg2d_iters(min,last) =      -1      82
(PID.TID 0000.0001)      cg2d_last_res =   9.87318585205297E-12
(PID.TID 0000.0001) // =======================================================
(PID.TID 0000.0001) // Begin MONITOR dynamic field statistics
(PID.TID 0000.0001) // =======================================================
(PID.TID 0000.0001) %MON time_tsnumber                =                  1175
(PID.TID 0000.0001) %MON time_secondsf                =   1.1750000000000E+05
(PID.TID 0000.0001) %MON dynstat_eta_max              =   5.7967083887872E+00
(PID.TID 0000.0001) %MON dynstat_eta_min              =  -1.4199902195765E+01
(PID.TID 0000.0001) %MON dynstat_eta_mean             =  -2.5060483240367E+00
(PID.TID 0000.0001) %MON dynstat_eta_sd               =   4.9506658575305E+00
(PID.TID 0000.0001) %MON dynstat_eta_del2             =   2.0715557204154E-01
(PID.TID 0000.0001) %MON dynstat_uvel_max             =   6.9839489105590E-03
(PID.TID 0000.0001) %MON dynstat_uvel_min             =  -3.1665647687825E-02
(PID.TID 0000.0001) %MON dynstat_uvel_mean            =  -1.1014086578707E-07
(PID.TID 0000.0001) %MON dynstat_uvel_sd              =   9.2008560237639E-04
(PID.TID 0000.0001) %MON dynstat_uvel_del2            =   1.3469742791673E-06
(PID.TID 0000.0001) %MON dynstat_vvel_max             =   2.3978339553529E-02
(PID.TID 0000.0001) %MON dynstat_vvel_min             =  -1.0232024954552E-02
(PID.TID 0000.0001) %MON dynstat_vvel_mean            =   1.5237720176089E-05
(PID.TID 0000.0001) %MON dynstat_vvel_sd              =   5.3173295376405E-04
(PID.TID 0000.0001) %MON dynstat_vvel_del2            =   1.0749011763107E-06
(PID.TID 0000.0001) %MON dynstat_wvel_max             =   1.2375993646188E-03
(PID.TID 0000.0001) %MON dynstat_wvel_min             =  -1.1932778904867E-03
(PID.TID 0000.0001) %MON dynstat_wvel_mean            =   6.9164320001768E-09
(PID.TID 0000.0001) %MON dynstat_wvel_sd              =   2.0879022146389E-05
(PID.TID 0000.0001) %MON dynstat_wvel_del2            =   8.6954877177266E-08
(PID.TID 0000.0001) %MON dynstat_theta_max            =   1.2000000000000E+00
(PID.TID 0000.0001) %MON dynstat_theta_min            =  -1.0000000000000E+00
(PID.TID 0000.0001) %MON dynstat_theta_mean           =   5.6862401371830E-01
(PID.TID 0000.0001) %MON dynstat_theta_sd             =   8.6832491859257E-01
(PID.TID 0000.0001) %MON dynstat_theta_del2           =   3.4471041261087E-06
(PID.TID 0000.0001) %MON dynstat_salt_max             =   3.4700000000000E+01
(PID.TID 0000.0001) %MON dynstat_salt_min             =   3.4000000000000E+01
(PID.TID 0000.0001) %MON dynstat_salt_mean            =   3.4499063761587E+01
(PID.TID 0000.0001) %MON dynstat_salt_sd              =   2.7626828160189E-01
(PID.TID 0000.0001) %MON dynstat_salt_del2            =   1.3625699734523E-06
(PID.TID 0000.0001) %MON advcfl_uvel_max              =   3.1665647687825E-03
(PID.TID 0000.0001) %MON advcfl_vvel_max              =   2.3978339553529E-03
(PID.TID 0000.0001) %MON advcfl_wvel_max              =   6.1879968230941E-03
(PID.TID 0000.0001) %MON advcfl_W_hf_max              =   6.1879968230941E-03
(PID.TID 0000.0001) %MON pe_b_mean                    =  -8.3038361172886E-01
(PID.TID 0000.0001) %MON ke_max                       =   3.6961625566539E-04
(PID.TID 0000.0001) %MON ke_mean                      =   5.5636574120061E-07
(PID.TID 0000.0001) %MON ke_vol                       =   4.2724741199215E+12
(PID.TID 0000.0001) // =======================================================
(PID.TID 0000.0001) // End MONITOR dynamic field statistics
(PID.TID 0000.0001) // =======================================================
(PID.TID 0000.0001) // =======================================================
(PID.TID 0000.0001) // Begin OBCS MONITOR field statistics
(PID.TID 0000.0001) // =======================================================
(PID.TID 0000.0001) %MON obc_N_vVel_max               =   1.4967522673741E-05
(PID.TID 0000.0001) %MON obc_N_vVel_min               =   1.4967522673741E-05
(PID.TID 0000.0001) %MON obc_N_vVel_mean              =   1.4967522673741E-05
(PID.TID 0000.0001) %MON obc_N_vVel_sd                =   4.7640075626434E-12
(PID.TID 0000.0001) %MON obc_N_vVel_Int               =   9.8785649646689E+02
(PID.TID 0000.0001) // =======================================================
(PID.TID 0000.0001) // End OBCS MONITOR field statistics
(PID.TID 0000.0001) // =======================================================
 cg2d: Sum(rhs),rhsMax =   4.51174794204622E+00  2.99943692541782E+02
(PID.TID 0000.0001)      cg2d_init_res =   7.84570613859525E-06
(PID.TID 0000.0001)      cg2d_iters(min,last) =      -1      82
(PID.TID 0000.0001)      cg2d_last_res =   9.87196823853171E-12
(PID.TID 0000.0001) // =======================================================
(PID.TID 0000.0001) // Begin MONITOR dynamic field statistics
(PID.TID 0000.0001) // =======================================================
(PID.TID 0000.0001) %MON time_tsnumber                =                  1176
(PID.TID 0000.0001) %MON time_secondsf                =   1.1760000000000E+05
(PID.TID 0000.0001) %MON dynstat_eta_max              =   5.7966891939079E+00
(PID.TID 0000.0001) %MON dynstat_eta_min              =  -1.4199916146661E+01
(PID.TID 0000.0001) %MON dynstat_eta_mean             =  -2.5060561806576E+00
(PID.TID 0000.0001) %MON dynstat_eta_sd               =   4.9506687953042E+00
(PID.TID 0000.0001) %MON dynstat_eta_del2             =   2.0715560877988E-01
(PID.TID 0000.0001) %MON dynstat_uvel_max             =   7.0002008536605E-03
(PID.TID 0000.0001) %MON dynstat_uvel_min             =  -3.1742579242958E-02
(PID.TID 0000.0001) %MON dynstat_uvel_mean            =  -1.1002523786580E-07
(PID.TID 0000.0001) %MON dynstat_uvel_sd              =   9.2224788926784E-04
(PID.TID 0000.0001) %MON dynstat_uvel_del2            =   1.3501995121464E-06
(PID.TID 0000.0001) %MON dynstat_vvel_max             =   2.4026977879934E-02
(PID.TID 0000.0001) %MON dynstat_vvel_min             =  -1.0258764152997E-02
(PID.TID 0000.0001) %MON dynstat_vvel_mean            =   1.5201250290848E-05
(PID.TID 0000.0001) %MON dynstat_vvel_sd              =   5.3276339208866E-04
(PID.TID 0000.0001) %MON dynstat_vvel_del2            =   1.0771920775816E-06
(PID.TID 0000.0001) %MON dynstat_wvel_max             =   1.2404329027814E-03
(PID.TID 0000.0001) %MON dynstat_wvel_min             =  -1.1959579568041E-03
(PID.TID 0000.0001) %MON dynstat_wvel_mean            =   6.8619230404862E-09
(PID.TID 0000.0001) %MON dynstat_wvel_sd              =   2.0961401860863E-05
(PID.TID 0000.0001) %MON dynstat_wvel_del2            =   8.7320310554238E-08
(PID.TID 0000.0001) %MON dynstat_theta_max            =   1.2000000000000E+00
(PID.TID 0000.0001) %MON dynstat_theta_min            =  -1.0000000000000E+00
(PID.TID 0000.0001) %MON dynstat_theta_mean           =   5.6862297129758E-01
(PID.TID 0000.0001) %MON dynstat_theta_sd             =   8.6832435558499E-01
(PID.TID 0000.0001) %MON dynstat_theta_del2           =   3.4540815796658E-06
(PID.TID 0000.0001) %MON dynstat_salt_max             =   3.4700000000000E+01
(PID.TID 0000.0001) %MON dynstat_salt_min             =   3.4000000000000E+01
(PID.TID 0000.0001) %MON dynstat_salt_mean            =   3.4499063344377E+01
(PID.TID 0000.0001) %MON dynstat_salt_sd              =   2.7626806487371E-01
(PID.TID 0000.0001) %MON dynstat_salt_del2            =   1.3653656941601E-06
(PID.TID 0000.0001) %MON advcfl_uvel_max              =   3.1742579242958E-03
(PID.TID 0000.0001) %MON advcfl_vvel_max              =   2.4026977879934E-03
(PID.TID 0000.0001) %MON advcfl_wvel_max              =   6.2021645139070E-03
(PID.TID 0000.0001) %MON advcfl_W_hf_max              =   6.2021645139070E-03
(PID.TID 0000.0001) %MON pe_b_mean                    =  -8.3038546533748E-01
(PID.TID 0000.0001) %MON ke_max                       =   3.7152845700537E-04
(PID.TID 0000.0001) %MON ke_mean                      =   5.5886595635688E-07
(PID.TID 0000.0001) %MON ke_vol                       =   4.2724740729552E+12
(PID.TID 0000.0001) // =======================================================
(PID.TID 0000.0001) // End MONITOR dynamic field statistics
(PID.TID 0000.0001) // =======================================================
(PID.TID 0000.0001) // =======================================================
(PID.TID 0000.0001) // Begin OBCS MONITOR field statistics
(PID.TID 0000.0001) // =======================================================
(PID.TID 0000.0001) %MON obc_N_vVel_max               =   1.4936144891897E-05
(PID.TID 0000.0001) %MON obc_N_vVel_min               =   1.4936144891897E-05
(PID.TID 0000.0001) %MON obc_N_vVel_mean              =   1.4936144891897E-05
(PID.TID 0000.0001) %MON obc_N_vVel_sd                =   3.2235782052243E-12
(PID.TID 0000.0001) %MON obc_N_vVel_Int               =   9.8578556286522E+02
(PID.TID 0000.0001) // =======================================================
(PID.TID 0000.0001) // End OBCS MONITOR field statistics
(PID.TID 0000.0001) // =======================================================
 cg2d: Sum(rhs),rhsMax =   4.51176086824802E+00  2.99943767345905E+02
(PID.TID 0000.0001)      cg2d_init_res =   7.83449421297170E-06
(PID.TID 0000.0001)      cg2d_iters(min,last) =      -1      82
(PID.TID 0000.0001)      cg2d_last_res =   9.87328348875547E-12
(PID.TID 0000.0001) // =======================================================
(PID.TID 0000.0001) // Begin MONITOR dynamic field statistics
(PID.TID 0000.0001) // =======================================================
(PID.TID 0000.0001) %MON time_tsnumber                =                  1177
(PID.TID 0000.0001) %MON time_secondsf                =   1.1770000000000E+05
(PID.TID 0000.0001) %MON dynstat_eta_max              =   5.7966700869687E+00
(PID.TID 0000.0001) %MON dynstat_eta_min              =  -1.4199930010275E+01
(PID.TID 0000.0001) %MON dynstat_eta_mean             =  -2.5060639855299E+00
(PID.TID 0000.0001) %MON dynstat_eta_sd               =   4.9506717159038E+00
(PID.TID 0000.0001) %MON dynstat_eta_del2             =   2.0715564556803E-01
(PID.TID 0000.0001) %MON dynstat_uvel_max             =   7.0164821191838E-03
(PID.TID 0000.0001) %MON dynstat_uvel_min             =  -3.1819633783084E-02
(PID.TID 0000.0001) %MON dynstat_uvel_mean            =  -1.0993777924799E-07
(PID.TID 0000.0001) %MON dynstat_uvel_sd              =   9.2441444277173E-04
(PID.TID 0000.0001) %MON dynstat_uvel_del2            =   1.3534327865940E-06
(PID.TID 0000.0001) %MON dynstat_vvel_max             =   2.4075648159035E-02
(PID.TID 0000.0001) %MON dynstat_vvel_min             =  -1.0285565581459E-02
(PID.TID 0000.0001) %MON dynstat_vvel_mean            =   1.5163573588153E-05
(PID.TID 0000.0001) %MON dynstat_vvel_sd              =   5.3379620842964E-04
(PID.TID 0000.0001) %MON dynstat_vvel_del2            =   1.0794885450387E-06
(PID.TID 0000.0001) %MON dynstat_wvel_max             =   1.2432695269666E-03
(PID.TID 0000.0001) %MON dynstat_wvel_min             =  -1.1986409915935E-03
(PID.TID 0000.0001) %MON dynstat_wvel_mean            =   6.8103779602939E-09
(PID.TID 0000.0001) %MON dynstat_wvel_sd              =   2.1045905686518E-05
(PID.TID 0000.0001) %MON dynstat_wvel_del2            =   8.7694577790161E-08
(PID.TID 0000.0001) %MON dynstat_theta_max            =   1.2000000000000E+00
(PID.TID 0000.0001) %MON dynstat_theta_min            =  -1.0000000000000E+00
(PID.TID 0000.0001) %MON dynstat_theta_mean           =   5.6862192703404E-01
(PID.TID 0000.0001) %MON dynstat_theta_sd             =   8.6832379158847E-01
(PID.TID 0000.0001) %MON dynstat_theta_del2           =   3.4610795905180E-06
(PID.TID 0000.0001) %MON dynstat_salt_max             =   3.4700000000000E+01
(PID.TID 0000.0001) %MON dynstat_salt_min             =   3.4000000000000E+01
(PID.TID 0000.0001) %MON dynstat_salt_mean            =   3.4499062926431E+01
(PID.TID 0000.0001) %MON dynstat_salt_sd              =   2.7626784776686E-01
(PID.TID 0000.0001) %MON dynstat_salt_del2            =   1.3681690035021E-06
(PID.TID 0000.0001) %MON advcfl_uvel_max              =   3.1819633783084E-03
(PID.TID 0000.0001) %MON advcfl_vvel_max              =   2.4075648159035E-03
(PID.TID 0000.0001) %MON advcfl_wvel_max              =   6.2163476348330E-03
(PID.TID 0000.0001) %MON advcfl_W_hf_max              =   6.2163476348330E-03
(PID.TID 0000.0001) %MON pe_b_mean                    =  -8.3038730387302E-01
(PID.TID 0000.0001) %MON ke_max                       =   3.7344916596105E-04
(PID.TID 0000.0001) %MON ke_mean                      =   5.6137693450213E-07
(PID.TID 0000.0001) %MON ke_vol                       =   4.2724740262869E+12
(PID.TID 0000.0001) // =======================================================
(PID.TID 0000.0001) // End MONITOR dynamic field statistics
(PID.TID 0000.0001) // =======================================================
(PID.TID 0000.0001) // =======================================================
(PID.TID 0000.0001) // Begin OBCS MONITOR field statistics
(PID.TID 0000.0001) // =======================================================
(PID.TID 0000.0001) %MON obc_N_vVel_max               =   1.4903355831887E-05
(PID.TID 0000.0001) %MON obc_N_vVel_min               =   1.4903355831886E-05
(PID.TID 0000.0001) %MON obc_N_vVel_mean              =   1.4903355831887E-05
(PID.TID 0000.0001) %MON obc_N_vVel_sd                =  -1.4863401631812E-23
(PID.TID 0000.0001) %MON obc_N_vVel_Int               =   9.8362148490454E+02
(PID.TID 0000.0001) // =======================================================
(PID.TID 0000.0001) // End OBCS MONITOR field statistics
(PID.TID 0000.0001) // =======================================================
 cg2d: Sum(rhs),rhsMax =   4.51177370442039E+00  2.99943841818023E+02
(PID.TID 0000.0001)      cg2d_init_res =   7.82452218966024E-06
(PID.TID 0000.0001)      cg2d_iters(min,last) =      -1      82
(PID.TID 0000.0001)      cg2d_last_res =   9.87726815364566E-12
(PID.TID 0000.0001) // =======================================================
(PID.TID 0000.0001) // Begin MONITOR dynamic field statistics
(PID.TID 0000.0001) // =======================================================
(PID.TID 0000.0001) %MON time_tsnumber                =                  1178
(PID.TID 0000.0001) %MON time_secondsf                =   1.1780000000000E+05
(PID.TID 0000.0001) %MON dynstat_eta_max              =   5.7966510690054E+00
(PID.TID 0000.0001) %MON dynstat_eta_min              =  -1.4199943785903E+01
(PID.TID 0000.0001) %MON dynstat_eta_mean             =  -2.5060717376248E+00
(PID.TID 0000.0001) %MON dynstat_eta_sd               =   4.9506746194650E+00
(PID.TID 0000.0001) %MON dynstat_eta_del2             =   2.0715568240635E-01
(PID.TID 0000.0001) %MON dynstat_uvel_max             =   7.0327926977107E-03
(PID.TID 0000.0001) %MON dynstat_uvel_min             =  -3.1896811460744E-02
(PID.TID 0000.0001) %MON dynstat_uvel_mean            =  -1.0987948568085E-07
(PID.TID 0000.0001) %MON dynstat_uvel_sd              =   9.2658527682004E-04
(PID.TID 0000.0001) %MON dynstat_uvel_del2            =   1.3566741312591E-06
(PID.TID 0000.0001) %MON dynstat_vvel_max             =   2.4124350291120E-02
(PID.TID 0000.0001) %MON dynstat_vvel_min             =  -1.0312429236739E-02
(PID.TID 0000.0001) %MON dynstat_vvel_mean            =   1.5125270092780E-05
(PID.TID 0000.0001) %MON dynstat_vvel_sd              =   5.3483086231647E-04
(PID.TID 0000.0001) %MON dynstat_vvel_del2            =   1.0817862709214E-06
(PID.TID 0000.0001) %MON dynstat_wvel_max             =   1.2461092269341E-03
(PID.TID 0000.0001) %MON dynstat_wvel_min             =  -1.2013269902627E-03
(PID.TID 0000.0001) %MON dynstat_wvel_mean            =   6.7625760802311E-09
(PID.TID 0000.0001) %MON dynstat_wvel_sd              =   2.1129489793113E-05
(PID.TID 0000.0001) %MON dynstat_wvel_del2            =   8.8063188444268E-08
(PID.TID 0000.0001) %MON dynstat_theta_max            =   1.2000000000000E+00
(PID.TID 0000.0001) %MON dynstat_theta_min            =  -1.0000000000000E+00
(PID.TID 0000.0001) %MON dynstat_theta_mean           =   5.6862088092395E-01
(PID.TID 0000.0001) %MON dynstat_theta_sd             =   8.6832322660356E-01
(PID.TID 0000.0001) %MON dynstat_theta_del2           =   3.4681025725456E-06
(PID.TID 0000.0001) %MON dynstat_salt_max             =   3.4700000000000E+01
(PID.TID 0000.0001) %MON dynstat_salt_min             =   3.4000000000000E+01
(PID.TID 0000.0001) %MON dynstat_salt_mean            =   3.4499062507746E+01
(PID.TID 0000.0001) %MON dynstat_salt_sd              =   2.7626763028179E-01
(PID.TID 0000.0001) %MON dynstat_salt_del2            =   1.3709810598152E-06
(PID.TID 0000.0001) %MON advcfl_uvel_max              =   3.1896811460744E-03
(PID.TID 0000.0001) %MON advcfl_vvel_max              =   2.4124350291120E-03
(PID.TID 0000.0001) %MON advcfl_wvel_max              =   6.2305461346707E-03
(PID.TID 0000.0001) %MON advcfl_W_hf_max              =   6.2305461346707E-03
(PID.TID 0000.0001) %MON pe_b_mean                    =  -8.3038912721019E-01
(PID.TID 0000.0001) %MON ke_max                       =   3.7537841541990E-04
(PID.TID 0000.0001) %MON ke_mean                      =   5.6389844265359E-07
(PID.TID 0000.0001) %MON ke_vol                       =   4.2724739799260E+12
(PID.TID 0000.0001) // =======================================================
(PID.TID 0000.0001) // End MONITOR dynamic field statistics
(PID.TID 0000.0001) // =======================================================
(PID.TID 0000.0001) // =======================================================
(PID.TID 0000.0001) // Begin OBCS MONITOR field statistics
(PID.TID 0000.0001) // =======================================================
(PID.TID 0000.0001) %MON obc_N_vVel_max               =   1.4869661338423E-05
(PID.TID 0000.0001) %MON obc_N_vVel_min               =   1.4869661338423E-05
(PID.TID 0000.0001) %MON obc_N_vVel_mean              =   1.4869661338423E-05
(PID.TID 0000.0001) %MON obc_N_vVel_sd                =   1.2244447150657E-12
(PID.TID 0000.0001) %MON obc_N_vVel_Int               =   9.8139764833593E+02
(PID.TID 0000.0001) // =======================================================
(PID.TID 0000.0001) // End OBCS MONITOR field statistics
(PID.TID 0000.0001) // =======================================================
 cg2d: Sum(rhs),rhsMax =   4.51178644928649E+00  2.99943915988688E+02
(PID.TID 0000.0001)      cg2d_init_res =   7.81597115328455E-06
(PID.TID 0000.0001)      cg2d_iters(min,last) =      -1      82
(PID.TID 0000.0001)      cg2d_last_res =   9.88400148887971E-12
(PID.TID 0000.0001) // =======================================================
(PID.TID 0000.0001) // Begin MONITOR dynamic field statistics
(PID.TID 0000.0001) // =======================================================
(PID.TID 0000.0001) %MON time_tsnumber                =                  1179
(PID.TID 0000.0001) %MON time_secondsf                =   1.1790000000000E+05
(PID.TID 0000.0001) %MON dynstat_eta_max              =   5.7966321399543E+00
(PID.TID 0000.0001) %MON dynstat_eta_min              =  -1.4199957473891E+01
(PID.TID 0000.0001) %MON dynstat_eta_mean             =  -2.5060794364883E+00
(PID.TID 0000.0001) %MON dynstat_eta_sd               =   4.9506775063166E+00
(PID.TID 0000.0001) %MON dynstat_eta_del2             =   2.0715571929533E-01
(PID.TID 0000.0001) %MON dynstat_uvel_max             =   7.0491325807822E-03
(PID.TID 0000.0001) %MON dynstat_uvel_min             =  -3.1974112427031E-02
(PID.TID 0000.0001) %MON dynstat_uvel_mean            =  -1.0985083070110E-07
(PID.TID 0000.0001) %MON dynstat_uvel_sd              =   9.2876040554517E-04
(PID.TID 0000.0001) %MON dynstat_uvel_del2            =   1.3599235753229E-06
(PID.TID 0000.0001) %MON dynstat_vvel_max             =   2.4173084177360E-02
(PID.TID 0000.0001) %MON dynstat_vvel_min             =  -1.0339355114885E-02
(PID.TID 0000.0001) %MON dynstat_vvel_mean            =   1.5086926921597E-05
(PID.TID 0000.0001) %MON dynstat_vvel_sd              =   5.3586682628198E-04
(PID.TID 0000.0001) %MON dynstat_vvel_del2            =   1.0840812696910E-06
(PID.TID 0000.0001) %MON dynstat_wvel_max             =   1.2489519923747E-03
(PID.TID 0000.0001) %MON dynstat_wvel_min             =  -1.2040159482487E-03
(PID.TID 0000.0001) %MON dynstat_wvel_mean            =   6.7192357693982E-09
(PID.TID 0000.0001) %MON dynstat_wvel_sd              =   2.1209254792354E-05
(PID.TID 0000.0001) %MON dynstat_wvel_del2            =   8.8412436542348E-08
(PID.TID 0000.0001) %MON dynstat_theta_max            =   1.2000000000000E+00
(PID.TID 0000.0001) %MON dynstat_theta_min            =  -1.0000000000000E+00
(PID.TID 0000.0001) %MON dynstat_theta_mean           =   5.6861983296386E-01
(PID.TID 0000.0001) %MON dynstat_theta_sd             =   8.6832266063012E-01
(PID.TID 0000.0001) %MON dynstat_theta_del2           =   3.4751545161100E-06
(PID.TID 0000.0001) %MON dynstat_salt_max             =   3.4700000000000E+01
(PID.TID 0000.0001) %MON dynstat_salt_min             =   3.4000000000000E+01
(PID.TID 0000.0001) %MON dynstat_salt_mean            =   3.4499062088321E+01
(PID.TID 0000.0001) %MON dynstat_salt_sd              =   2.7626741241821E-01
(PID.TID 0000.0001) %MON dynstat_salt_del2            =   1.3738028892139E-06
(PID.TID 0000.0001) %MON advcfl_uvel_max              =   3.1974112427031E-03
(PID.TID 0000.0001) %MON advcfl_vvel_max              =   2.4173084177360E-03
(PID.TID 0000.0001) %MON advcfl_wvel_max              =   6.2447599618736E-03
(PID.TID 0000.0001) %MON advcfl_W_hf_max              =   6.2447599618736E-03
(PID.TID 0000.0001) %MON pe_b_mean                    =  -8.3039093537327E-01
(PID.TID 0000.0001) %MON ke_max                       =   3.7731623833182E-04
(PID.TID 0000.0001) %MON ke_mean                      =   5.6643025294609E-07
(PID.TID 0000.0001) %MON ke_vol                       =   4.2724739338785E+12
(PID.TID 0000.0001) // =======================================================
(PID.TID 0000.0001) // End MONITOR dynamic field statistics
(PID.TID 0000.0001) // =======================================================
(PID.TID 0000.0001) // =======================================================
(PID.TID 0000.0001) // Begin OBCS MONITOR field statistics
(PID.TID 0000.0001) // =======================================================
(PID.TID 0000.0001) %MON obc_N_vVel_max               =   1.4835578858692E-05
(PID.TID 0000.0001) %MON obc_N_vVel_min               =   1.4835578858692E-05
(PID.TID 0000.0001) %MON obc_N_vVel_mean              =   1.4835578858692E-05
(PID.TID 0000.0001) %MON obc_N_vVel_sd                =   3.4744304661981E-12
(PID.TID 0000.0001) %MON obc_N_vVel_Int               =   9.7914820467365E+02
(PID.TID 0000.0001) // =======================================================
(PID.TID 0000.0001) // End OBCS MONITOR field statistics
(PID.TID 0000.0001) // =======================================================
 cg2d: Sum(rhs),rhsMax =   4.51179910249545E+00  2.99943989896128E+02
(PID.TID 0000.0001)      cg2d_init_res =   7.80900456010467E-06
(PID.TID 0000.0001)      cg2d_iters(min,last) =      -1      82
(PID.TID 0000.0001)      cg2d_last_res =   9.89352551192549E-12
(PID.TID 0000.0001) // =======================================================
(PID.TID 0000.0001) // Begin MONITOR dynamic field statistics
(PID.TID 0000.0001) // =======================================================
(PID.TID 0000.0001) %MON time_tsnumber                =                  1180
(PID.TID 0000.0001) %MON time_secondsf                =   1.1800000000000E+05
(PID.TID 0000.0001) %MON dynstat_eta_max              =   5.7966132986821E+00
(PID.TID 0000.0001) %MON dynstat_eta_min              =  -1.4199971075588E+01
(PID.TID 0000.0001) %MON dynstat_eta_mean             =  -2.5060870822449E+00
(PID.TID 0000.0001) %MON dynstat_eta_sd               =   4.9506803769745E+00
(PID.TID 0000.0001) %MON dynstat_eta_del2             =   2.0715575623563E-01
(PID.TID 0000.0001) %MON dynstat_uvel_max             =   7.0655017614811E-03
(PID.TID 0000.0001) %MON dynstat_uvel_min             =  -3.2051536830863E-02
(PID.TID 0000.0001) %MON dynstat_uvel_mean            =  -1.0985176072871E-07
(PID.TID 0000.0001) %MON dynstat_uvel_sd              =   9.3093984321734E-04
(PID.TID 0000.0001) %MON dynstat_uvel_del2            =   1.3631811479077E-06
(PID.TID 0000.0001) %MON dynstat_vvel_max             =   2.4221849717768E-02
(PID.TID 0000.0001) %MON dynstat_vvel_min             =  -1.0366343213233E-02
(PID.TID 0000.0001) %MON dynstat_vvel_mean            =   1.5049129421485E-05
(PID.TID 0000.0001) %MON dynstat_vvel_sd              =   5.3690361819540E-04
(PID.TID 0000.0001) %MON dynstat_vvel_del2            =   1.0863701167454E-06
(PID.TID 0000.0001) %MON dynstat_wvel_max             =   1.2517978128919E-03
(PID.TID 0000.0001) %MON dynstat_wvel_min             =  -1.2067078609878E-03
(PID.TID 0000.0001) %MON dynstat_wvel_mean            =   6.6810066461174E-09
(PID.TID 0000.0001) %MON dynstat_wvel_sd              =   2.1282615804682E-05
(PID.TID 0000.0001) %MON dynstat_wvel_del2            =   8.8730204599234E-08
(PID.TID 0000.0001) %MON dynstat_theta_max            =   1.2000000000000E+00
(PID.TID 0000.0001) %MON dynstat_theta_min            =  -1.0000000000000E+00
(PID.TID 0000.0001) %MON dynstat_theta_mean           =   5.6861878315058E-01
(PID.TID 0000.0001) %MON dynstat_theta_sd             =   8.6832209366619E-01
(PID.TID 0000.0001) %MON dynstat_theta_del2           =   3.4822386941950E-06
(PID.TID 0000.0001) %MON dynstat_salt_max             =   3.4700000000000E+01
(PID.TID 0000.0001) %MON dynstat_salt_min             =   3.4000000000000E+01
(PID.TID 0000.0001) %MON dynstat_salt_mean            =   3.4499061668156E+01
(PID.TID 0000.0001) %MON dynstat_salt_sd              =   2.7626719417580E-01
(PID.TID 0000.0001) %MON dynstat_salt_del2            =   1.3766352711619E-06
(PID.TID 0000.0001) %MON advcfl_uvel_max              =   3.2051536830863E-03
(PID.TID 0000.0001) %MON advcfl_vvel_max              =   2.4221849717768E-03
(PID.TID 0000.0001) %MON advcfl_wvel_max              =   6.2589890644596E-03
(PID.TID 0000.0001) %MON advcfl_W_hf_max              =   6.2589890644596E-03
(PID.TID 0000.0001) %MON pe_b_mean                    =  -8.3039272853492E-01
(PID.TID 0000.0001) %MON ke_max                       =   3.7926266769327E-04
(PID.TID 0000.0001) %MON ke_mean                      =   5.6897215985923E-07
(PID.TID 0000.0001) %MON ke_vol                       =   4.2724738881473E+12
(PID.TID 0000.0001) // =======================================================
(PID.TID 0000.0001) // End MONITOR dynamic field statistics
(PID.TID 0000.0001) // =======================================================
(PID.TID 0000.0001) // =======================================================
(PID.TID 0000.0001) // Begin OBCS MONITOR field statistics
(PID.TID 0000.0001) // =======================================================
(PID.TID 0000.0001) %MON obc_N_vVel_max               =   1.4801629420148E-05
(PID.TID 0000.0001) %MON obc_N_vVel_min               =   1.4801629420148E-05
(PID.TID 0000.0001) %MON obc_N_vVel_mean              =   1.4801629420148E-05
(PID.TID 0000.0001) %MON obc_N_vVel_sd                =  -7.6514206661155E-24
(PID.TID 0000.0001) %MON obc_N_vVel_Int               =   9.7690754172978E+02
(PID.TID 0000.0001) // =======================================================
(PID.TID 0000.0001) // End OBCS MONITOR field statistics
(PID.TID 0000.0001) // =======================================================
 cg2d: Sum(rhs),rhsMax =   4.51181166461553E+00  2.99944063586153E+02
(PID.TID 0000.0001)      cg2d_init_res =   7.80376927285660E-06
(PID.TID 0000.0001)      cg2d_iters(min,last) =      -1      82
(PID.TID 0000.0001)      cg2d_last_res =   9.90584013948998E-12
(PID.TID 0000.0001) // =======================================================
(PID.TID 0000.0001) // Begin MONITOR dynamic field statistics
(PID.TID 0000.0001) // =======================================================
(PID.TID 0000.0001) %MON time_tsnumber                =                  1181
(PID.TID 0000.0001) %MON time_secondsf                =   1.1810000000000E+05
(PID.TID 0000.0001) %MON dynstat_eta_max              =   5.7965945429844E+00
(PID.TID 0000.0001) %MON dynstat_eta_min              =  -1.4199984593346E+01
(PID.TID 0000.0001) %MON dynstat_eta_mean             =  -2.5060946755929E+00
(PID.TID 0000.0001) %MON dynstat_eta_sd               =   4.9506832321332E+00
(PID.TID 0000.0001) %MON dynstat_eta_del2             =   2.0715579322801E-01
(PID.TID 0000.0001) %MON dynstat_uvel_max             =   7.0819002351001E-03
(PID.TID 0000.0001) %MON dynstat_uvel_min             =  -3.2129084818236E-02
(PID.TID 0000.0001) %MON dynstat_uvel_mean            =  -1.0988170331003E-07
(PID.TID 0000.0001) %MON dynstat_uvel_sd              =   9.3312360419343E-04
(PID.TID 0000.0001) %MON dynstat_uvel_del2            =   1.3664468777493E-06
(PID.TID 0000.0001) %MON dynstat_vvel_max             =   2.4270646809849E-02
(PID.TID 0000.0001) %MON dynstat_vvel_min             =  -1.0393393531796E-02
(PID.TID 0000.0001) %MON dynstat_vvel_mean            =   1.5012452339246E-05
(PID.TID 0000.0001) %MON dynstat_vvel_sd              =   5.3794083006024E-04
(PID.TID 0000.0001) %MON dynstat_vvel_del2            =   1.0886501444974E-06
(PID.TID 0000.0001) %MON dynstat_wvel_max             =   1.2546466780345E-03
(PID.TID 0000.0001) %MON dynstat_wvel_min             =  -1.2094027237189E-03
(PID.TID 0000.0001) %MON dynstat_wvel_mean            =   6.6484582213931E-09
(PID.TID 0000.0001) %MON dynstat_wvel_sd              =   2.1347445445893E-05
(PID.TID 0000.0001) %MON dynstat_wvel_del2            =   8.9006617706456E-08
(PID.TID 0000.0001) %MON dynstat_theta_max            =   1.2000000000000E+00
(PID.TID 0000.0001) %MON dynstat_theta_min            =  -1.0000000000000E+00
(PID.TID 0000.0001) %MON dynstat_theta_mean           =   5.6861773148121E-01
(PID.TID 0000.0001) %MON dynstat_theta_sd             =   8.6832152571214E-01
(PID.TID 0000.0001) %MON dynstat_theta_del2           =   3.4893574674626E-06
(PID.TID 0000.0001) %MON dynstat_salt_max             =   3.4700000000000E+01
(PID.TID 0000.0001) %MON dynstat_salt_min             =   3.4000000000000E+01
(PID.TID 0000.0001) %MON dynstat_salt_mean            =   3.4499061247248E+01
(PID.TID 0000.0001) %MON dynstat_salt_sd              =   2.7626697555454E-01
(PID.TID 0000.0001) %MON dynstat_salt_del2            =   1.3794787437290E-06
(PID.TID 0000.0001) %MON advcfl_uvel_max              =   3.2129084818236E-03
(PID.TID 0000.0001) %MON advcfl_vvel_max              =   2.4270646809849E-03
(PID.TID 0000.0001) %MON advcfl_wvel_max              =   6.2732333901723E-03
(PID.TID 0000.0001) %MON advcfl_W_hf_max              =   6.2732333901723E-03
(PID.TID 0000.0001) %MON pe_b_mean                    =  -8.3039450701290E-01
(PID.TID 0000.0001) %MON ke_max                       =   3.8121773653312E-04
(PID.TID 0000.0001) %MON ke_mean                      =   5.7152399576238E-07
(PID.TID 0000.0001) %MON ke_vol                       =   4.2724738427315E+12
(PID.TID 0000.0001) // =======================================================
(PID.TID 0000.0001) // End MONITOR dynamic field statistics
(PID.TID 0000.0001) // =======================================================
(PID.TID 0000.0001) // =======================================================
(PID.TID 0000.0001) // Begin OBCS MONITOR field statistics
(PID.TID 0000.0001) // =======================================================
(PID.TID 0000.0001) %MON obc_N_vVel_max               =   1.4768329898791E-05
(PID.TID 0000.0001) %MON obc_N_vVel_min               =   1.4768329898790E-05
(PID.TID 0000.0001) %MON obc_N_vVel_mean              =   1.4768329898791E-05
(PID.TID 0000.0001) %MON obc_N_vVel_sd                =  -1.9206099847716E-23
(PID.TID 0000.0001) %MON obc_N_vVel_Int               =   9.7470977332018E+02
(PID.TID 0000.0001) // =======================================================
(PID.TID 0000.0001) // End OBCS MONITOR field statistics
(PID.TID 0000.0001) // =======================================================
 cg2d: Sum(rhs),rhsMax =   4.51182413715127E+00  2.99944137109149E+02
(PID.TID 0000.0001)      cg2d_init_res =   7.80040035123264E-06
(PID.TID 0000.0001)      cg2d_iters(min,last) =      -1      82
(PID.TID 0000.0001)      cg2d_last_res =   9.92089333561458E-12
(PID.TID 0000.0001) // =======================================================
(PID.TID 0000.0001) // Begin MONITOR dynamic field statistics
(PID.TID 0000.0001) // =======================================================
(PID.TID 0000.0001) %MON time_tsnumber                =                  1182
(PID.TID 0000.0001) %MON time_secondsf                =   1.1820000000000E+05
(PID.TID 0000.0001) %MON dynstat_eta_max              =   5.7965758696419E+00
(PID.TID 0000.0001) %MON dynstat_eta_min              =  -1.4199998030472E+01
(PID.TID 0000.0001) %MON dynstat_eta_mean             =  -2.5061022177890E+00
(PID.TID 0000.0001) %MON dynstat_eta_sd               =   4.9506860726576E+00
(PID.TID 0000.0001) %MON dynstat_eta_del2             =   2.0715583027347E-01
(PID.TID 0000.0001) %MON dynstat_uvel_max             =   7.0983279998735E-03
(PID.TID 0000.0001) %MON dynstat_uvel_min             =  -3.2206756531512E-02
(PID.TID 0000.0001) %MON dynstat_uvel_mean            =  -1.0993958612295E-07
(PID.TID 0000.0001) %MON dynstat_uvel_sd              =   9.3531170287707E-04
(PID.TID 0000.0001) %MON dynstat_uvel_del2            =   1.3697207930170E-06
(PID.TID 0000.0001) %MON dynstat_vvel_max             =   2.4319475346610E-02
(PID.TID 0000.0001) %MON dynstat_vvel_min             =  -1.0420506075342E-02
(PID.TID 0000.0001) %MON dynstat_vvel_mean            =   1.4977451122741E-05
(PID.TID 0000.0001) %MON dynstat_vvel_sd              =   5.3897815145173E-04
(PID.TID 0000.0001) %MON dynstat_vvel_del2            =   1.0909195845274E-06
(PID.TID 0000.0001) %MON dynstat_wvel_max             =   1.2574985774714E-03
(PID.TID 0000.0001) %MON dynstat_wvel_min             =  -1.2121005315557E-03
(PID.TID 0000.0001) %MON dynstat_wvel_mean            =   6.6220724850154E-09
(PID.TID 0000.0001) %MON dynstat_wvel_sd              =   2.1402183605768E-05
(PID.TID 0000.0001) %MON dynstat_wvel_del2            =   8.9234523453533E-08
(PID.TID 0000.0001) %MON dynstat_theta_max            =   1.2000000000000E+00
(PID.TID 0000.0001) %MON dynstat_theta_min            =  -1.0000000000000E+00
(PID.TID 0000.0001) %MON dynstat_theta_mean           =   5.6861667795285E-01
(PID.TID 0000.0001) %MON dynstat_theta_sd             =   8.6832095677167E-01
(PID.TID 0000.0001) %MON dynstat_theta_del2           =   3.4965118136276E-06
(PID.TID 0000.0001) %MON dynstat_salt_max             =   3.4700000000000E+01
(PID.TID 0000.0001) %MON dynstat_salt_min             =   3.4000000000000E+01
(PID.TID 0000.0001) %MON dynstat_salt_mean            =   3.4499060825597E+01
(PID.TID 0000.0001) %MON dynstat_salt_sd              =   2.7626675655575E-01
(PID.TID 0000.0001) %MON dynstat_salt_del2            =   1.3823336008671E-06
(PID.TID 0000.0001) %MON advcfl_uvel_max              =   3.2206756531512E-03
(PID.TID 0000.0001) %MON advcfl_vvel_max              =   2.4319475346610E-03
(PID.TID 0000.0001) %MON advcfl_wvel_max              =   6.2874928873571E-03
(PID.TID 0000.0001) %MON advcfl_W_hf_max              =   6.2874928873571E-03
(PID.TID 0000.0001) %MON pe_b_mean                    =  -8.3039627126372E-01
(PID.TID 0000.0001) %MON ke_max                       =   3.8318147789896E-04
(PID.TID 0000.0001) %MON ke_mean                      =   5.7408564376964E-07
(PID.TID 0000.0001) %MON ke_vol                       =   4.2724737976270E+12
(PID.TID 0000.0001) // =======================================================
(PID.TID 0000.0001) // End MONITOR dynamic field statistics
(PID.TID 0000.0001) // =======================================================
(PID.TID 0000.0001) // =======================================================
(PID.TID 0000.0001) // Begin OBCS MONITOR field statistics
(PID.TID 0000.0001) // =======================================================
(PID.TID 0000.0001) %MON obc_N_vVel_max               =   1.4736185104792E-05
(PID.TID 0000.0001) %MON obc_N_vVel_min               =   1.4736185104792E-05
(PID.TID 0000.0001) %MON obc_N_vVel_mean              =   1.4736185104792E-05
(PID.TID 0000.0001) %MON obc_N_vVel_sd                =   3.3916043981154E-12
(PID.TID 0000.0001) %MON obc_N_vVel_Int               =   9.7258821691626E+02
(PID.TID 0000.0001) // =======================================================
(PID.TID 0000.0001) // End OBCS MONITOR field statistics
(PID.TID 0000.0001) // =======================================================
 cg2d: Sum(rhs),rhsMax =   4.51183652249407E+00  2.99944210521285E+02
(PID.TID 0000.0001)      cg2d_init_res =   7.79902242844857E-06
(PID.TID 0000.0001)      cg2d_iters(min,last) =      -1      82
(PID.TID 0000.0001)      cg2d_last_res =   9.93857963012053E-12
(PID.TID 0000.0001) // =======================================================
(PID.TID 0000.0001) // Begin MONITOR dynamic field statistics
(PID.TID 0000.0001) // =======================================================
(PID.TID 0000.0001) %MON time_tsnumber                =                  1183
(PID.TID 0000.0001) %MON time_secondsf                =   1.1830000000000E+05
(PID.TID 0000.0001) %MON dynstat_eta_max              =   5.7965572744505E+00
(PID.TID 0000.0001) %MON dynstat_eta_min              =  -1.4200011391174E+01
(PID.TID 0000.0001) %MON dynstat_eta_mean             =  -2.5061097106307E+00
(PID.TID 0000.0001) %MON dynstat_eta_sd               =   4.9506888995613E+00
(PID.TID 0000.0001) %MON dynstat_eta_del2             =   2.0715586737292E-01
(PID.TID 0000.0001) %MON dynstat_uvel_max             =   7.1147850574924E-03
(PID.TID 0000.0001) %MON dynstat_uvel_min             =  -3.2284552109063E-02
(PID.TID 0000.0001) %MON dynstat_uvel_mean            =  -1.1002387751798E-07
(PID.TID 0000.0001) %MON dynstat_uvel_sd              =   9.3750415367284E-04
(PID.TID 0000.0001) %MON dynstat_uvel_del2            =   1.3730029207379E-06
(PID.TID 0000.0001) %MON dynstat_vvel_max             =   2.4368335215161E-02
(PID.TID 0000.0001) %MON dynstat_vvel_min             =  -1.0447680854913E-02
(PID.TID 0000.0001) %MON dynstat_vvel_mean            =   1.4944653529640E-05
(PID.TID 0000.0001) %MON dynstat_vvel_sd              =   5.4001538631615E-04
(PID.TID 0000.0001) %MON dynstat_vvel_del2            =   1.0931776485960E-06
(PID.TID 0000.0001) %MON dynstat_wvel_max             =   1.2603535020037E-03
(PID.TID 0000.0001) %MON dynstat_wvel_min             =  -1.2148012792154E-03
(PID.TID 0000.0001) %MON dynstat_wvel_mean            =   6.6022363472446E-09
(PID.TID 0000.0001) %MON dynstat_wvel_sd              =   2.1445910294816E-05
(PID.TID 0000.0001) %MON dynstat_wvel_del2            =   8.9409786861967E-08
(PID.TID 0000.0001) %MON dynstat_theta_max            =   1.2000000000000E+00
(PID.TID 0000.0001) %MON dynstat_theta_min            =  -1.0000000000000E+00
(PID.TID 0000.0001) %MON dynstat_theta_mean           =   5.6861562256317E-01
(PID.TID 0000.0001) %MON dynstat_theta_sd             =   8.6832038684990E-01
(PID.TID 0000.0001) %MON dynstat_theta_del2           =   3.5037018486791E-06
(PID.TID 0000.0001) %MON dynstat_salt_max             =   3.4700000000000E+01
(PID.TID 0000.0001) %MON dynstat_salt_min             =   3.4000000000000E+01
(PID.TID 0000.0001) %MON dynstat_salt_mean            =   3.4499060403201E+01
(PID.TID 0000.0001) %MON dynstat_salt_sd              =   2.7626653718092E-01
(PID.TID 0000.0001) %MON dynstat_salt_del2            =   1.3851997729628E-06
(PID.TID 0000.0001) %MON advcfl_uvel_max              =   3.2284552109063E-03
(PID.TID 0000.0001) %MON advcfl_vvel_max              =   2.4368335215161E-03
(PID.TID 0000.0001) %MON advcfl_wvel_max              =   6.3017675100187E-03
(PID.TID 0000.0001) %MON advcfl_W_hf_max              =   6.3017675100187E-03
(PID.TID 0000.0001) %MON pe_b_mean                    =  -8.3039802187659E-01
(PID.TID 0000.0001) %MON ke_max                       =   3.8515392485088E-04
(PID.TID 0000.0001) %MON ke_mean                      =   5.7665704716158E-07
(PID.TID 0000.0001) %MON ke_vol                       =   4.2724737528263E+12
(PID.TID 0000.0001) // =======================================================
(PID.TID 0000.0001) // End MONITOR dynamic field statistics
(PID.TID 0000.0001) // =======================================================
(PID.TID 0000.0001) // =======================================================
(PID.TID 0000.0001) // Begin OBCS MONITOR field statistics
(PID.TID 0000.0001) // =======================================================
(PID.TID 0000.0001) %MON obc_N_vVel_max               =   1.4705680207069E-05
(PID.TID 0000.0001) %MON obc_N_vVel_min               =   1.4705680207069E-05
(PID.TID 0000.0001) %MON obc_N_vVel_mean              =   1.4705680207069E-05
(PID.TID 0000.0001) %MON obc_N_vVel_sd                =  -1.1683926152312E-23
(PID.TID 0000.0001) %MON obc_N_vVel_Int               =   9.7057489366657E+02
(PID.TID 0000.0001) // =======================================================
(PID.TID 0000.0001) // End OBCS MONITOR field statistics
(PID.TID 0000.0001) // =======================================================
 cg2d: Sum(rhs),rhsMax =   4.51184882388295E+00  2.99944283883272E+02
(PID.TID 0000.0001)      cg2d_init_res =   7.79975171545222E-06
(PID.TID 0000.0001)      cg2d_iters(min,last) =      -1      82
(PID.TID 0000.0001)      cg2d_last_res =   9.95878824272901E-12
(PID.TID 0000.0001) // =======================================================
(PID.TID 0000.0001) // Begin MONITOR dynamic field statistics
(PID.TID 0000.0001) // =======================================================
(PID.TID 0000.0001) %MON time_tsnumber                =                  1184
(PID.TID 0000.0001) %MON time_secondsf                =   1.1840000000000E+05
(PID.TID 0000.0001) %MON dynstat_eta_max              =   5.7965387522990E+00
(PID.TID 0000.0001) %MON dynstat_eta_min              =  -1.4200024680490E+01
(PID.TID 0000.0001) %MON dynstat_eta_mean             =  -2.5061171564244E+00
(PID.TID 0000.0001) %MON dynstat_eta_sd               =   4.9506917139959E+00
(PID.TID 0000.0001) %MON dynstat_eta_del2             =   2.0715590452750E-01
(PID.TID 0000.0001) %MON dynstat_uvel_max             =   7.1312714133960E-03
(PID.TID 0000.0001) %MON dynstat_uvel_min             =  -3.2362471685824E-02
(PID.TID 0000.0001) %MON dynstat_uvel_mean            =  -1.1013263705499E-07
(PID.TID 0000.0001) %MON dynstat_uvel_sd              =   9.3970097094490E-04
(PID.TID 0000.0001) %MON dynstat_uvel_del2            =   1.3762932865672E-06
(PID.TID 0000.0001) %MON dynstat_vvel_max             =   2.4417226294895E-02
(PID.TID 0000.0001) %MON dynstat_vvel_min             =  -1.0474917889574E-02
(PID.TID 0000.0001) %MON dynstat_vvel_mean            =   1.4914551672933E-05
(PID.TID 0000.0001) %MON dynstat_vvel_sd              =   5.4105246254578E-04
(PID.TID 0000.0001) %MON dynstat_vvel_del2            =   1.0954245486446E-06
(PID.TID 0000.0001) %MON dynstat_wvel_max             =   1.2632114421436E-03
(PID.TID 0000.0001) %MON dynstat_wvel_min             =  -1.2175049610787E-03
(PID.TID 0000.0001) %MON dynstat_wvel_mean            =   6.5892351714872E-09
(PID.TID 0000.0001) %MON dynstat_wvel_sd              =   2.1478379987857E-05
(PID.TID 0000.0001) %MON dynstat_wvel_del2            =   8.9531401463547E-08
(PID.TID 0000.0001) %MON dynstat_theta_max            =   1.2000000000000E+00
(PID.TID 0000.0001) %MON dynstat_theta_min            =  -1.0000000000000E+00
(PID.TID 0000.0001) %MON dynstat_theta_mean           =   5.6861456531011E-01
(PID.TID 0000.0001) %MON dynstat_theta_sd             =   8.6831981594961E-01
(PID.TID 0000.0001) %MON dynstat_theta_del2           =   3.5109265488765E-06
(PID.TID 0000.0001) %MON dynstat_salt_max             =   3.4700000000000E+01
(PID.TID 0000.0001) %MON dynstat_salt_min             =   3.4000000000000E+01
(PID.TID 0000.0001) %MON dynstat_salt_mean            =   3.4499059980060E+01
(PID.TID 0000.0001) %MON dynstat_salt_sd              =   2.7626631743077E-01
(PID.TID 0000.0001) %MON dynstat_salt_del2            =   1.3880768902870E-06
(PID.TID 0000.0001) %MON advcfl_uvel_max              =   3.2362471685824E-03
(PID.TID 0000.0001) %MON advcfl_vvel_max              =   2.4417226294895E-03
(PID.TID 0000.0001) %MON advcfl_wvel_max              =   6.3160572107181E-03
(PID.TID 0000.0001) %MON advcfl_W_hf_max              =   6.3160572107181E-03
(PID.TID 0000.0001) %MON pe_b_mean                    =  -8.3039975956296E-01
(PID.TID 0000.0001) %MON ke_max                       =   3.8713511048625E-04
(PID.TID 0000.0001) %MON ke_mean                      =   5.7923821501811E-07
(PID.TID 0000.0001) %MON ke_vol                       =   4.2724737083189E+12
(PID.TID 0000.0001) // =======================================================
(PID.TID 0000.0001) // End MONITOR dynamic field statistics
(PID.TID 0000.0001) // =======================================================
(PID.TID 0000.0001) // =======================================================
(PID.TID 0000.0001) // Begin OBCS MONITOR field statistics
(PID.TID 0000.0001) // =======================================================
(PID.TID 0000.0001) %MON obc_N_vVel_max               =   1.4677273438820E-05
(PID.TID 0000.0001) %MON obc_N_vVel_min               =   1.4677273438819E-05
(PID.TID 0000.0001) %MON obc_N_vVel_mean              =   1.4677273438820E-05
(PID.TID 0000.0001) %MON obc_N_vVel_sd                =  -1.8870057723866E-23
(PID.TID 0000.0001) %MON obc_N_vVel_Int               =   9.6870004696212E+02
(PID.TID 0000.0001) // =======================================================
(PID.TID 0000.0001) // End OBCS MONITOR field statistics
(PID.TID 0000.0001) // =======================================================
 cg2d: Sum(rhs),rhsMax =   4.51186104535990E+00  2.99944357258829E+02
(PID.TID 0000.0001)      cg2d_init_res =   7.80269488088871E-06
(PID.TID 0000.0001)      cg2d_iters(min,last) =      -1      82
(PID.TID 0000.0001)      cg2d_last_res =   9.98131544218993E-12
(PID.TID 0000.0001) // =======================================================
(PID.TID 0000.0001) // Begin MONITOR dynamic field statistics
(PID.TID 0000.0001) // =======================================================
(PID.TID 0000.0001) %MON time_tsnumber                =                  1185
(PID.TID 0000.0001) %MON time_secondsf                =   1.1850000000000E+05
(PID.TID 0000.0001) %MON dynstat_eta_max              =   5.7965202972483E+00
(PID.TID 0000.0001) %MON dynstat_eta_min              =  -1.4200037904200E+01
(PID.TID 0000.0001) %MON dynstat_eta_mean             =  -2.5061245579475E+00
(PID.TID 0000.0001) %MON dynstat_eta_sd               =   4.9506945172314E+00
(PID.TID 0000.0001) %MON dynstat_eta_del2             =   2.0715594173838E-01
(PID.TID 0000.0001) %MON dynstat_uvel_max             =   7.1477870776100E-03
(PID.TID 0000.0001) %MON dynstat_uvel_min             =  -3.2440515391001E-02
(PID.TID 0000.0001) %MON dynstat_uvel_mean            =  -1.1026355891272E-07
(PID.TID 0000.0001) %MON dynstat_uvel_sd              =   9.4190216907779E-04
(PID.TID 0000.0001) %MON dynstat_uvel_del2            =   1.3795919160494E-06
(PID.TID 0000.0001) %MON dynstat_vvel_max             =   2.4466148456175E-02
(PID.TID 0000.0001) %MON dynstat_vvel_min             =  -1.0502217207126E-02
(PID.TID 0000.0001) %MON dynstat_vvel_mean            =   1.4887594600451E-05
(PID.TID 0000.0001) %MON dynstat_vvel_sd              =   5.4208943350393E-04
(PID.TID 0000.0001) %MON dynstat_vvel_del2            =   1.0976614526047E-06
(PID.TID 0000.0001) %MON dynstat_wvel_max             =   1.2660723880538E-03
(PID.TID 0000.0001) %MON dynstat_wvel_min             =  -1.2202115710357E-03
(PID.TID 0000.0001) %MON dynstat_wvel_mean            =   6.5832501188656E-09
(PID.TID 0000.0001) %MON dynstat_wvel_sd              =   2.1500017613069E-05
(PID.TID 0000.0001) %MON dynstat_wvel_del2            =   8.9601424685993E-08
(PID.TID 0000.0001) %MON dynstat_theta_max            =   1.2000000000000E+00
(PID.TID 0000.0001) %MON dynstat_theta_min            =  -1.0000000000000E+00
(PID.TID 0000.0001) %MON dynstat_theta_mean           =   5.6861350619182E-01
(PID.TID 0000.0001) %MON dynstat_theta_sd             =   8.6831924407316E-01
(PID.TID 0000.0001) %MON dynstat_theta_del2           =   3.5181841311795E-06
(PID.TID 0000.0001) %MON dynstat_salt_max             =   3.4700000000000E+01
(PID.TID 0000.0001) %MON dynstat_salt_min             =   3.4000000000000E+01
(PID.TID 0000.0001) %MON dynstat_salt_mean            =   3.4499059556173E+01
(PID.TID 0000.0001) %MON dynstat_salt_sd              =   2.7626609730587E-01
(PID.TID 0000.0001) %MON dynstat_salt_del2            =   1.3909640965827E-06
(PID.TID 0000.0001) %MON advcfl_uvel_max              =   3.2440515391001E-03
(PID.TID 0000.0001) %MON advcfl_vvel_max              =   2.4466148456175E-03
(PID.TID 0000.0001) %MON advcfl_wvel_max              =   6.3303619402688E-03
(PID.TID 0000.0001) %MON advcfl_W_hf_max              =   6.3303619402688E-03
(PID.TID 0000.0001) %MON pe_b_mean                    =  -8.3040148514511E-01
(PID.TID 0000.0001) %MON ke_max                       =   3.8912506786816E-04
(PID.TID 0000.0001) %MON ke_mean                      =   5.8182922365235E-07
(PID.TID 0000.0001) %MON ke_vol                       =   4.2724736640908E+12
(PID.TID 0000.0001) // =======================================================
(PID.TID 0000.0001) // End MONITOR dynamic field statistics
(PID.TID 0000.0001) // =======================================================
(PID.TID 0000.0001) // =======================================================
(PID.TID 0000.0001) // Begin OBCS MONITOR field statistics
(PID.TID 0000.0001) // =======================================================
(PID.TID 0000.0001) %MON obc_N_vVel_max               =   1.4651389105570E-05
(PID.TID 0000.0001) %MON obc_N_vVel_min               =   1.4651389105570E-05
(PID.TID 0000.0001) %MON obc_N_vVel_mean              =   1.4651389105570E-05
(PID.TID 0000.0001) %MON obc_N_vVel_sd                =   2.7614436934280E-12
(PID.TID 0000.0001) %MON obc_N_vVel_Int               =   9.6699168096760E+02
(PID.TID 0000.0001) // =======================================================
(PID.TID 0000.0001) // End OBCS MONITOR field statistics
(PID.TID 0000.0001) // =======================================================
 cg2d: Sum(rhs),rhsMax =   4.51187319170813E+00  2.99944430713438E+02
(PID.TID 0000.0001)      cg2d_init_res =   7.80795032591753E-06
(PID.TID 0000.0001)      cg2d_iters(min,last) =      -1      83
(PID.TID 0000.0001)      cg2d_last_res =   8.81861764285879E-12
(PID.TID 0000.0001) // =======================================================
(PID.TID 0000.0001) // Begin MONITOR dynamic field statistics
(PID.TID 0000.0001) // =======================================================
(PID.TID 0000.0001) %MON time_tsnumber                =                  1186
(PID.TID 0000.0001) %MON time_secondsf                =   1.1860000000000E+05
(PID.TID 0000.0001) %MON dynstat_eta_max              =   5.7965019021204E+00
(PID.TID 0000.0001) %MON dynstat_eta_min              =  -1.4200051068681E+01
(PID.TID 0000.0001) %MON dynstat_eta_mean             =  -2.5061319184039E+00
(PID.TID 0000.0001) %MON dynstat_eta_sd               =   4.9506973106391E+00
(PID.TID 0000.0001) %MON dynstat_eta_del2             =   2.0715597900699E-01
(PID.TID 0000.0001) %MON dynstat_uvel_max             =   7.1643320632013E-03
(PID.TID 0000.0001) %MON dynstat_uvel_min             =  -3.2518683344933E-02
(PID.TID 0000.0001) %MON dynstat_uvel_mean            =  -1.1041437348430E-07
(PID.TID 0000.0001) %MON dynstat_uvel_sd              =   9.4410776264610E-04
(PID.TID 0000.0001) %MON dynstat_uvel_del2            =   1.3828988375950E-06
(PID.TID 0000.0001) %MON dynstat_vvel_max             =   2.4515101563832E-02
(PID.TID 0000.0001) %MON dynstat_vvel_min             =  -1.0529578843096E-02
(PID.TID 0000.0001) %MON dynstat_vvel_mean            =   1.4864181684710E-05
(PID.TID 0000.0001) %MON dynstat_vvel_sd              =   5.4312647202256E-04
(PID.TID 0000.0001) %MON dynstat_vvel_del2            =   1.0998903842809E-06
(PID.TID 0000.0001) %MON dynstat_wvel_max             =   1.2689363311450E-03
(PID.TID 0000.0001) %MON dynstat_wvel_min             =  -1.2229211043741E-03
(PID.TID 0000.0001) %MON dynstat_wvel_mean            =   6.5843574380570E-09
(PID.TID 0000.0001) %MON dynstat_wvel_sd              =   2.1511877879222E-05
(PID.TID 0000.0001) %MON dynstat_wvel_del2            =   8.9624753671315E-08
(PID.TID 0000.0001) %MON dynstat_theta_max            =   1.2000000000000E+00
(PID.TID 0000.0001) %MON dynstat_theta_min            =  -1.0000000000000E+00
(PID.TID 0000.0001) %MON dynstat_theta_mean           =   5.6861244520672E-01
(PID.TID 0000.0001) %MON dynstat_theta_sd             =   8.6831867122225E-01
(PID.TID 0000.0001) %MON dynstat_theta_del2           =   3.5254714347555E-06
(PID.TID 0000.0001) %MON dynstat_salt_max             =   3.4700000000000E+01
(PID.TID 0000.0001) %MON dynstat_salt_min             =   3.4000000000000E+01
(PID.TID 0000.0001) %MON dynstat_salt_mean            =   3.4499059131540E+01
(PID.TID 0000.0001) %MON dynstat_salt_sd              =   2.7626587680683E-01
(PID.TID 0000.0001) %MON dynstat_salt_del2            =   1.3938606886969E-06
(PID.TID 0000.0001) %MON advcfl_uvel_max              =   3.2518683344933E-03
(PID.TID 0000.0001) %MON advcfl_vvel_max              =   2.4515101563832E-03
(PID.TID 0000.0001) %MON advcfl_wvel_max              =   6.3446816557248E-03
(PID.TID 0000.0001) %MON advcfl_W_hf_max              =   6.3446816557248E-03
(PID.TID 0000.0001) %MON pe_b_mean                    =  -8.3040319954310E-01
(PID.TID 0000.0001) %MON ke_max                       =   3.9112382991067E-04
(PID.TID 0000.0001) %MON ke_mean                      =   5.8443021408083E-07
(PID.TID 0000.0001) %MON ke_vol                       =   4.2724736201258E+12
(PID.TID 0000.0001) // =======================================================
(PID.TID 0000.0001) // End MONITOR dynamic field statistics
(PID.TID 0000.0001) // =======================================================
(PID.TID 0000.0001) // =======================================================
(PID.TID 0000.0001) // Begin OBCS MONITOR field statistics
(PID.TID 0000.0001) // =======================================================
(PID.TID 0000.0001) %MON obc_N_vVel_max               =   1.4628411318886E-05
(PID.TID 0000.0001) %MON obc_N_vVel_min               =   1.4628411318886E-05
(PID.TID 0000.0001) %MON obc_N_vVel_mean              =   1.4628411318886E-05
(PID.TID 0000.0001) %MON obc_N_vVel_sd                =  -1.2304311611726E-23
(PID.TID 0000.0001) %MON obc_N_vVel_Int               =   9.6547514704650E+02
(PID.TID 0000.0001) // =======================================================
(PID.TID 0000.0001) // End OBCS MONITOR field statistics
(PID.TID 0000.0001) // =======================================================
 cg2d: Sum(rhs),rhsMax =   4.51188526836619E+00  2.99944504313935E+02
(PID.TID 0000.0001)      cg2d_init_res =   7.81550395335640E-06
(PID.TID 0000.0001)      cg2d_iters(min,last) =      -1      83
(PID.TID 0000.0001)      cg2d_last_res =   8.83887029212047E-12
(PID.TID 0000.0001) // =======================================================
(PID.TID 0000.0001) // Begin MONITOR dynamic field statistics
(PID.TID 0000.0001) // =======================================================
(PID.TID 0000.0001) %MON time_tsnumber                =                  1187
(PID.TID 0000.0001) %MON time_secondsf                =   1.1870000000000E+05
(PID.TID 0000.0001) %MON dynstat_eta_max              =   5.7964835606278E+00
(PID.TID 0000.0001) %MON dynstat_eta_min              =  -1.4200064181113E+01
(PID.TID 0000.0001) %MON dynstat_eta_mean             =  -2.5061392413730E+00
(PID.TID 0000.0001) %MON dynstat_eta_sd               =   4.9507000956574E+00
(PID.TID 0000.0001) %MON dynstat_eta_del2             =   2.0715601633410E-01
(PID.TID 0000.0001) %MON dynstat_uvel_max             =   7.1809064005279E-03
(PID.TID 0000.0001) %MON dynstat_uvel_min             =  -3.2596975658349E-02
(PID.TID 0000.0001) %MON dynstat_uvel_mean            =  -1.1058168585854E-07
(PID.TID 0000.0001) %MON dynstat_uvel_sd              =   9.4631776601897E-04
(PID.TID 0000.0001) %MON dynstat_uvel_del2            =   1.3862140755850E-06
(PID.TID 0000.0001) %MON dynstat_vvel_max             =   2.4564085451931E-02
(PID.TID 0000.0001) %MON dynstat_vvel_min             =  -1.0557002858535E-02
(PID.TID 0000.0001) %MON dynstat_vvel_mean            =   1.4844656313205E-05
(PID.TID 0000.0001) %MON dynstat_vvel_sd              =   5.4416385718329E-04
(PID.TID 0000.0001) %MON dynstat_vvel_del2            =   1.1021140789907E-06
(PID.TID 0000.0001) %MON dynstat_wvel_max             =   1.2718032577916E-03
(PID.TID 0000.0001) %MON dynstat_wvel_min             =  -1.2256335480187E-03
(PID.TID 0000.0001) %MON dynstat_wvel_mean            =   6.5925111622805E-09
(PID.TID 0000.0001) %MON dynstat_wvel_sd              =   2.1515570922899E-05
(PID.TID 0000.0001) %MON dynstat_wvel_del2            =   8.9608763446631E-08
(PID.TID 0000.0001) %MON dynstat_theta_max            =   1.2000000000000E+00
(PID.TID 0000.0001) %MON dynstat_theta_min            =  -1.0000000000000E+00
(PID.TID 0000.0001) %MON dynstat_theta_mean           =   5.6861138235333E-01
(PID.TID 0000.0001) %MON dynstat_theta_sd             =   8.6831809739870E-01
(PID.TID 0000.0001) %MON dynstat_theta_del2           =   3.5327844632021E-06
(PID.TID 0000.0001) %MON dynstat_salt_max             =   3.4700000000000E+01
(PID.TID 0000.0001) %MON dynstat_salt_min             =   3.4000000000000E+01
(PID.TID 0000.0001) %MON dynstat_salt_mean            =   3.4499058706159E+01
(PID.TID 0000.0001) %MON dynstat_salt_sd              =   2.7626565593420E-01
(PID.TID 0000.0001) %MON dynstat_salt_del2            =   1.3967656132543E-06
(PID.TID 0000.0001) %MON advcfl_uvel_max              =   3.2596975658349E-03
(PID.TID 0000.0001) %MON advcfl_vvel_max              =   2.4564085451931E-03
(PID.TID 0000.0001) %MON advcfl_wvel_max              =   6.3590162889582E-03
(PID.TID 0000.0001) %MON advcfl_W_hf_max              =   6.3590162889582E-03
(PID.TID 0000.0001) %MON pe_b_mean                    =  -8.3040490375973E-01
(PID.TID 0000.0001) %MON ke_max                       =   3.9313142951113E-04
(PID.TID 0000.0001) %MON ke_mean                      =   5.8704138501311E-07
(PID.TID 0000.0001) %MON ke_vol                       =   4.2724735764047E+12
(PID.TID 0000.0001) // =======================================================
(PID.TID 0000.0001) // End MONITOR dynamic field statistics
(PID.TID 0000.0001) // =======================================================
(PID.TID 0000.0001) // =======================================================
(PID.TID 0000.0001) // Begin OBCS MONITOR field statistics
(PID.TID 0000.0001) // =======================================================
(PID.TID 0000.0001) %MON obc_N_vVel_max               =   1.4608678601487E-05
(PID.TID 0000.0001) %MON obc_N_vVel_min               =   1.4608678601487E-05
(PID.TID 0000.0001) %MON obc_N_vVel_mean              =   1.4608678601487E-05
(PID.TID 0000.0001) %MON obc_N_vVel_sd                =  -7.3153785422658E-24
(PID.TID 0000.0001) %MON obc_N_vVel_Int               =   9.6417278769817E+02
(PID.TID 0000.0001) // =======================================================
(PID.TID 0000.0001) // End OBCS MONITOR field statistics
(PID.TID 0000.0001) // =======================================================
 cg2d: Sum(rhs),rhsMax =   4.51189728135177E+00  2.99944578126724E+02
(PID.TID 0000.0001)      cg2d_init_res =   7.82558499319186E-06
(PID.TID 0000.0001)      cg2d_iters(min,last) =      -1      83
(PID.TID 0000.0001)      cg2d_last_res =   8.85977867683089E-12
(PID.TID 0000.0001) // =======================================================
(PID.TID 0000.0001) // Begin MONITOR dynamic field statistics
(PID.TID 0000.0001) // =======================================================
(PID.TID 0000.0001) %MON time_tsnumber                =                  1188
(PID.TID 0000.0001) %MON time_secondsf                =   1.1880000000000E+05
(PID.TID 0000.0001) %MON dynstat_eta_max              =   5.7964652644214E+00
(PID.TID 0000.0001) %MON dynstat_eta_min              =  -1.4200077248829E+01
(PID.TID 0000.0001) %MON dynstat_eta_mean             =  -2.5061465307522E+00
(PID.TID 0000.0001) %MON dynstat_eta_sd               =   4.9507028737892E+00
(PID.TID 0000.0001) %MON dynstat_eta_del2             =   2.0715605372118E-01
(PID.TID 0000.0001) %MON dynstat_uvel_max             =   7.1975101078721E-03
(PID.TID 0000.0001) %MON dynstat_uvel_min             =  -3.2675392449764E-02
(PID.TID 0000.0001) %MON dynstat_uvel_mean            =  -1.1076241019044E-07
(PID.TID 0000.0001) %MON dynstat_uvel_sd              =   9.4853219352033E-04
(PID.TID 0000.0001) %MON dynstat_uvel_del2            =   1.3895376538074E-06
(PID.TID 0000.0001) %MON dynstat_vvel_max             =   2.4613099969848E-02
(PID.TID 0000.0001) %MON dynstat_vvel_min             =  -1.0584489313144E-02
(PID.TID 0000.0001) %MON dynstat_vvel_mean            =   1.4829301079707E-05
(PID.TID 0000.0001) %MON dynstat_vvel_sd              =   5.4520195493324E-04
(PID.TID 0000.0001) %MON dynstat_vvel_del2            =   1.1043357981581E-06
(PID.TID 0000.0001) %MON dynstat_wvel_max             =   1.2746731617712E-03
(PID.TID 0000.0001) %MON dynstat_wvel_min             =  -1.2283489000391E-03
(PID.TID 0000.0001) %MON dynstat_wvel_mean            =   6.6075816521237E-09
(PID.TID 0000.0001) %MON dynstat_wvel_sd              =   2.1513158308163E-05
(PID.TID 0000.0001) %MON dynstat_wvel_del2            =   8.9562827952436E-08
(PID.TID 0000.0001) %MON dynstat_theta_max            =   1.2000000000000E+00
(PID.TID 0000.0001) %MON dynstat_theta_min            =  -1.0000000000000E+00
(PID.TID 0000.0001) %MON dynstat_theta_mean           =   5.6861031763041E-01
(PID.TID 0000.0001) %MON dynstat_theta_sd             =   8.6831752260378E-01
(PID.TID 0000.0001) %MON dynstat_theta_del2           =   3.5401185676959E-06
(PID.TID 0000.0001) %MON dynstat_salt_max             =   3.4700000000000E+01
(PID.TID 0000.0001) %MON dynstat_salt_min             =   3.4000000000000E+01
(PID.TID 0000.0001) %MON dynstat_salt_mean            =   3.4499058280029E+01
(PID.TID 0000.0001) %MON dynstat_salt_sd              =   2.7626543468833E-01
(PID.TID 0000.0001) %MON dynstat_salt_del2            =   1.3996775963821E-06
(PID.TID 0000.0001) %MON advcfl_uvel_max              =   3.2675392449764E-03
(PID.TID 0000.0001) %MON advcfl_vvel_max              =   2.4613099969848E-03
(PID.TID 0000.0001) %MON advcfl_wvel_max              =   6.3733658088558E-03
(PID.TID 0000.0001) %MON advcfl_W_hf_max              =   6.3733658088558E-03
(PID.TID 0000.0001) %MON pe_b_mean                    =  -8.3040659886536E-01
(PID.TID 0000.0001) %MON ke_max                       =   3.9514789979570E-04
(PID.TID 0000.0001) %MON ke_mean                      =   5.8966298293219E-07
(PID.TID 0000.0001) %MON ke_vol                       =   4.2724735329062E+12
(PID.TID 0000.0001) // =======================================================
(PID.TID 0000.0001) // End MONITOR dynamic field statistics
(PID.TID 0000.0001) // =======================================================
(PID.TID 0000.0001) // =======================================================
(PID.TID 0000.0001) // Begin OBCS MONITOR field statistics
(PID.TID 0000.0001) // =======================================================
(PID.TID 0000.0001) %MON obc_N_vVel_max               =   1.4592477057513E-05
(PID.TID 0000.0001) %MON obc_N_vVel_min               =   1.4592477057512E-05
(PID.TID 0000.0001) %MON obc_N_vVel_mean              =   1.4592477057513E-05
(PID.TID 0000.0001) %MON obc_N_vVel_sd                =  -6.9017882359893E-24
(PID.TID 0000.0001) %MON obc_N_vVel_Int               =   9.6310348579584E+02
(PID.TID 0000.0001) // =======================================================
(PID.TID 0000.0001) // End OBCS MONITOR field statistics
(PID.TID 0000.0001) // =======================================================
 cg2d: Sum(rhs),rhsMax =   4.50584751303532E+00  2.99944652216797E+02
(PID.TID 0000.0001)      cg2d_init_res =   3.65643218708588E-05
(PID.TID 0000.0001)      cg2d_iters(min,last) =      -1      86
(PID.TID 0000.0001)      cg2d_last_res =   8.97221491039172E-12
(PID.TID 0000.0001) // =======================================================
(PID.TID 0000.0001) // Begin MONITOR dynamic field statistics
(PID.TID 0000.0001) // =======================================================
(PID.TID 0000.0001) %MON time_tsnumber                =                  1189
(PID.TID 0000.0001) %MON time_secondsf                =   1.1890000000000E+05
(PID.TID 0000.0001) %MON dynstat_eta_max              =   5.7993813825181E+00
(PID.TID 0000.0001) %MON dynstat_eta_min              =  -1.4185508688850E+01
(PID.TID 0000.0001) %MON dynstat_eta_mean             =  -2.5027867874802E+00
(PID.TID 0000.0001) %MON dynstat_eta_sd               =   4.9495521341254E+00
(PID.TID 0000.0001) %MON dynstat_eta_del2             =   2.0715604395503E-01
(PID.TID 0000.0001) %MON dynstat_uvel_max             =   7.2141432143518E-03
(PID.TID 0000.0001) %MON dynstat_uvel_min             =  -3.2753933848634E-02
(PID.TID 0000.0001) %MON dynstat_uvel_mean            =  -1.1309095080636E-07
(PID.TID 0000.0001) %MON dynstat_uvel_sd              =   9.5074966625706E-04
(PID.TID 0000.0001) %MON dynstat_uvel_del2            =   1.3928424239728E-06
(PID.TID 0000.0001) %MON dynstat_vvel_max             =   2.4662135938763E-02
(PID.TID 0000.0001) %MON dynstat_vvel_min             =  -1.0612038299636E-02
(PID.TID 0000.0001) %MON dynstat_vvel_mean            =   1.4819333293767E-05
(PID.TID 0000.0001) %MON dynstat_vvel_sd              =   5.4623626008964E-04
(PID.TID 0000.0001) %MON dynstat_vvel_del2            =   1.1065745357370E-06
(PID.TID 0000.0001) %MON dynstat_wvel_max             =   1.2775461370869E-03
(PID.TID 0000.0001) %MON dynstat_wvel_min             =  -1.2310671471994E-03
(PID.TID 0000.0001) %MON dynstat_wvel_mean            =   6.6247756344012E-09
(PID.TID 0000.0001) %MON dynstat_wvel_sd              =   2.1507190393642E-05
(PID.TID 0000.0001) %MON dynstat_wvel_del2            =   8.9499743036284E-08
(PID.TID 0000.0001) %MON dynstat_theta_max            =   1.2000000000000E+00
(PID.TID 0000.0001) %MON dynstat_theta_min            =  -1.0000000000000E+00
(PID.TID 0000.0001) %MON dynstat_theta_mean           =   5.6860925105493E-01
(PID.TID 0000.0001) %MON dynstat_theta_sd             =   8.6831693955445E-01
(PID.TID 0000.0001) %MON dynstat_theta_del2           =   3.5675206076431E-06
(PID.TID 0000.0001) %MON dynstat_salt_max             =   3.4700000000000E+01
(PID.TID 0000.0001) %MON dynstat_salt_min             =   3.4000000000000E+01
(PID.TID 0000.0001) %MON dynstat_salt_mean            =   3.4499057853159E+01
(PID.TID 0000.0001) %MON dynstat_salt_sd              =   2.7626521066453E-01
(PID.TID 0000.0001) %MON dynstat_salt_del2            =   1.4079105492699E-06
(PID.TID 0000.0001) %MON advcfl_uvel_max              =   3.2753933848634E-03
(PID.TID 0000.0001) %MON advcfl_vvel_max              =   2.4662135938763E-03
(PID.TID 0000.0001) %MON advcfl_wvel_max              =   6.3877306854344E-03
(PID.TID 0000.0001) %MON advcfl_W_hf_max              =   6.3877306854344E-03
(PID.TID 0000.0001) %MON pe_b_mean                    =  -8.2942898651103E-01
(PID.TID 0000.0001) %MON ke_max                       =   3.9717327437253E-04
(PID.TID 0000.0001) %MON ke_mean                      =   5.9229131122200E-07
(PID.TID 0000.0001) %MON ke_vol                       =   4.2724734896073E+12
(PID.TID 0000.0001) // =======================================================
(PID.TID 0000.0001) // End MONITOR dynamic field statistics
(PID.TID 0000.0001) // =======================================================
(PID.TID 0000.0001) // =======================================================
(PID.TID 0000.0001) // Begin OBCS MONITOR field statistics
(PID.TID 0000.0001) // =======================================================
(PID.TID 0000.0001) %MON obc_N_vVel_max               =   1.4580039452563E-05
(PID.TID 0000.0001) %MON obc_N_vVel_min               =   1.4580039452562E-05
(PID.TID 0000.0001) %MON obc_N_vVel_mean              =   1.4580039452562E-05
(PID.TID 0000.0001) %MON obc_N_vVel_sd                =   3.6768509809909E-12
(PID.TID 0000.0001) %MON obc_N_vVel_Int               =   9.6228260386911E+02
(PID.TID 0000.0001) // =======================================================
(PID.TID 0000.0001) // End OBCS MONITOR field statistics
(PID.TID 0000.0001) // =======================================================
 cg2d: Sum(rhs),rhsMax =   4.50585942123837E+00  2.99944726647108E+02
(PID.TID 0000.0001)      cg2d_init_res =   7.89516964427175E-06
(PID.TID 0000.0001)      cg2d_iters(min,last) =      -1      83
(PID.TID 0000.0001)      cg2d_last_res =   8.94965810267050E-12
(PID.TID 0000.0001) // =======================================================
(PID.TID 0000.0001) // Begin MONITOR dynamic field statistics
(PID.TID 0000.0001) // =======================================================
(PID.TID 0000.0001) %MON time_tsnumber                =                  1190
(PID.TID 0000.0001) %MON time_secondsf                =   1.1900000000000E+05
(PID.TID 0000.0001) %MON dynstat_eta_max              =   5.7993736479534E+00
(PID.TID 0000.0001) %MON dynstat_eta_min              =  -1.4185538178431E+01
(PID.TID 0000.0001) %MON dynstat_eta_mean             =  -2.5027940229882E+00
(PID.TID 0000.0001) %MON dynstat_eta_sd               =   4.9495549028871E+00
(PID.TID 0000.0001) %MON dynstat_eta_del2             =   2.0715608167654E-01
(PID.TID 0000.0001) %MON dynstat_uvel_max             =   7.2308057294705E-03
(PID.TID 0000.0001) %MON dynstat_uvel_min             =  -3.2832600076246E-02
(PID.TID 0000.0001) %MON dynstat_uvel_mean            =  -1.1625799860111E-07
(PID.TID 0000.0001) %MON dynstat_uvel_sd              =   9.5297290758842E-04
(PID.TID 0000.0001) %MON dynstat_uvel_del2            =   1.3961894013726E-06
(PID.TID 0000.0001) %MON dynstat_vvel_max             =   2.4711196969375E-02
(PID.TID 0000.0001) %MON dynstat_vvel_min             =  -1.0639649971893E-02
(PID.TID 0000.0001) %MON dynstat_vvel_mean            =   1.4814351524454E-05
(PID.TID 0000.0001) %MON dynstat_vvel_sd              =   5.4727718159966E-04
(PID.TID 0000.0001) %MON dynstat_vvel_del2            =   1.1088039754548E-06
(PID.TID 0000.0001) %MON dynstat_wvel_max             =   1.2804220073044E-03
(PID.TID 0000.0001) %MON dynstat_wvel_min             =  -1.2337882792288E-03
(PID.TID 0000.0001) %MON dynstat_wvel_mean            =   6.6430394493069E-09
(PID.TID 0000.0001) %MON dynstat_wvel_sd              =   2.1499923194417E-05
(PID.TID 0000.0001) %MON dynstat_wvel_del2            =   8.9428236019038E-08
(PID.TID 0000.0001) %MON dynstat_theta_max            =   1.2000000000000E+00
(PID.TID 0000.0001) %MON dynstat_theta_min            =  -1.0000000000000E+00
(PID.TID 0000.0001) %MON dynstat_theta_mean           =   5.6860818260872E-01
(PID.TID 0000.0001) %MON dynstat_theta_sd             =   8.6831636280157E-01
(PID.TID 0000.0001) %MON dynstat_theta_del2           =   3.5746221359794E-06
(PID.TID 0000.0001) %MON dynstat_salt_max             =   3.4700000000000E+01
(PID.TID 0000.0001) %MON dynstat_salt_min             =   3.4000000000000E+01
(PID.TID 0000.0001) %MON dynstat_salt_mean            =   3.4499057425539E+01
(PID.TID 0000.0001) %MON dynstat_salt_sd              =   2.7626498866652E-01
(PID.TID 0000.0001) %MON dynstat_salt_del2            =   1.4107644062001E-06
(PID.TID 0000.0001) %MON advcfl_uvel_max              =   3.2832600076246E-03
(PID.TID 0000.0001) %MON advcfl_vvel_max              =   2.4711196969375E-03
(PID.TID 0000.0001) %MON advcfl_wvel_max              =   6.4021100365218E-03
(PID.TID 0000.0001) %MON advcfl_W_hf_max              =   6.4021100365218E-03
(PID.TID 0000.0001) %MON pe_b_mean                    =  -8.2943066580074E-01
(PID.TID 0000.0001) %MON ke_max                       =   3.9920758949504E-04
(PID.TID 0000.0001) %MON ke_mean                      =   5.9493461154963E-07
(PID.TID 0000.0001) %MON ke_vol                       =   4.2724734464824E+12
(PID.TID 0000.0001) // =======================================================
(PID.TID 0000.0001) // End MONITOR dynamic field statistics
(PID.TID 0000.0001) // =======================================================
(PID.TID 0000.0001) // =======================================================
(PID.TID 0000.0001) // Begin OBCS MONITOR field statistics
(PID.TID 0000.0001) // =======================================================
(PID.TID 0000.0001) %MON obc_N_vVel_max               =   1.4571989345502E-05
(PID.TID 0000.0001) %MON obc_N_vVel_min               =   1.4571989345502E-05
(PID.TID 0000.0001) %MON obc_N_vVel_mean              =   1.4571989345502E-05
(PID.TID 0000.0001) %MON obc_N_vVel_sd                =   3.0035709673082E-12
(PID.TID 0000.0001) %MON obc_N_vVel_Int               =   9.6175129680310E+02
(PID.TID 0000.0001) // =======================================================
(PID.TID 0000.0001) // End OBCS MONITOR field statistics
(PID.TID 0000.0001) // =======================================================
 cg2d: Sum(rhs),rhsMax =   4.50587128969315E+00  2.99944801475365E+02
(PID.TID 0000.0001)      cg2d_init_res =   7.87380117789991E-06
(PID.TID 0000.0001)      cg2d_iters(min,last) =      -1      83
(PID.TID 0000.0001)      cg2d_last_res =   8.81879554078358E-12
(PID.TID 0000.0001) // =======================================================
(PID.TID 0000.0001) // Begin MONITOR dynamic field statistics
(PID.TID 0000.0001) // =======================================================
(PID.TID 0000.0001) %MON time_tsnumber                =                  1191
(PID.TID 0000.0001) %MON time_secondsf                =   1.1910000000000E+05
(PID.TID 0000.0001) %MON dynstat_eta_max              =   5.7993645060704E+00
(PID.TID 0000.0001) %MON dynstat_eta_min              =  -1.4185567665839E+01
(PID.TID 0000.0001) %MON dynstat_eta_mean             =  -2.5028012397418E+00
(PID.TID 0000.0001) %MON dynstat_eta_sd               =   4.9495576726326E+00
(PID.TID 0000.0001) %MON dynstat_eta_del2             =   2.0715611930176E-01
(PID.TID 0000.0001) %MON dynstat_uvel_max             =   7.2474976401899E-03
(PID.TID 0000.0001) %MON dynstat_uvel_min             =  -3.2911391492942E-02
(PID.TID 0000.0001) %MON dynstat_uvel_mean            =  -1.1819274883371E-07
(PID.TID 0000.0001) %MON dynstat_uvel_sd              =   9.5520075907350E-04
(PID.TID 0000.0001) %MON dynstat_uvel_del2            =   1.3995457052572E-06
(PID.TID 0000.0001) %MON dynstat_vvel_max             =   2.4760301430677E-02
(PID.TID 0000.0001) %MON dynstat_vvel_min             =  -1.0667324591772E-02
(PID.TID 0000.0001) %MON dynstat_vvel_mean            =   1.4814618746826E-05
(PID.TID 0000.0001) %MON dynstat_vvel_sd              =   5.4831998036777E-04
(PID.TID 0000.0001) %MON dynstat_vvel_del2            =   1.1110432925471E-06
(PID.TID 0000.0001) %MON dynstat_wvel_max             =   1.2833005715923E-03
(PID.TID 0000.0001) %MON dynstat_wvel_min             =  -1.2365122633618E-03
(PID.TID 0000.0001) %MON dynstat_wvel_mean            =   6.6923942874225E-09
(PID.TID 0000.0001) %MON dynstat_wvel_sd              =   2.1494123818938E-05
(PID.TID 0000.0001) %MON dynstat_wvel_del2            =   8.9361380072587E-08
(PID.TID 0000.0001) %MON dynstat_theta_max            =   1.2000000000000E+00
(PID.TID 0000.0001) %MON dynstat_theta_min            =  -1.0000000000000E+00
(PID.TID 0000.0001) %MON dynstat_theta_mean           =   5.6860711229415E-01
(PID.TID 0000.0001) %MON dynstat_theta_sd             =   8.6831578507865E-01
(PID.TID 0000.0001) %MON dynstat_theta_del2           =   3.5817310972307E-06
(PID.TID 0000.0001) %MON dynstat_salt_max             =   3.4700000000000E+01
(PID.TID 0000.0001) %MON dynstat_salt_min             =   3.4000000000000E+01
(PID.TID 0000.0001) %MON dynstat_salt_mean            =   3.4499056997170E+01
(PID.TID 0000.0001) %MON dynstat_salt_sd              =   2.7626476629540E-01
(PID.TID 0000.0001) %MON dynstat_salt_del2            =   1.4136215967814E-06
(PID.TID 0000.0001) %MON advcfl_uvel_max              =   3.2911391492942E-03
(PID.TID 0000.0001) %MON advcfl_vvel_max              =   2.4760301430677E-03
(PID.TID 0000.0001) %MON advcfl_wvel_max              =   6.4165028579613E-03
(PID.TID 0000.0001) %MON advcfl_W_hf_max              =   6.4165028579613E-03
(PID.TID 0000.0001) %MON pe_b_mean                    =  -8.2943234029150E-01
(PID.TID 0000.0001) %MON ke_max                       =   4.0125088519194E-04
(PID.TID 0000.0001) %MON ke_mean                      =   5.9758926283440E-07
(PID.TID 0000.0001) %MON ke_vol                       =   4.2724734035034E+12
(PID.TID 0000.0001) // =======================================================
(PID.TID 0000.0001) // End MONITOR dynamic field statistics
(PID.TID 0000.0001) // =======================================================
(PID.TID 0000.0001) // =======================================================
(PID.TID 0000.0001) // Begin OBCS MONITOR field statistics
(PID.TID 0000.0001) // =======================================================
(PID.TID 0000.0001) %MON obc_N_vVel_max               =   1.4569219948951E-05
(PID.TID 0000.0001) %MON obc_N_vVel_min               =   1.4569219948950E-05
(PID.TID 0000.0001) %MON obc_N_vVel_mean              =   1.4569219948950E-05
(PID.TID 0000.0001) %MON obc_N_vVel_sd                =   4.5075074925987E-12
(PID.TID 0000.0001) %MON obc_N_vVel_Int               =   9.6156851663073E+02
(PID.TID 0000.0001) // =======================================================
(PID.TID 0000.0001) // End OBCS MONITOR field statistics
(PID.TID 0000.0001) // =======================================================
 cg2d: Sum(rhs),rhsMax =   4.50588312821587E+00  2.99944876757875E+02
(PID.TID 0000.0001)      cg2d_init_res =   7.89151050890234E-06
(PID.TID 0000.0001)      cg2d_iters(min,last) =      -1      83
(PID.TID 0000.0001)      cg2d_last_res =   8.88741334719225E-12
(PID.TID 0000.0001) // =======================================================
(PID.TID 0000.0001) // Begin MONITOR dynamic field statistics
(PID.TID 0000.0001) // =======================================================
(PID.TID 0000.0001) %MON time_tsnumber                =                  1192
(PID.TID 0000.0001) %MON time_secondsf                =   1.1920000000000E+05
(PID.TID 0000.0001) %MON dynstat_eta_max              =   5.7993518858312E+00
(PID.TID 0000.0001) %MON dynstat_eta_min              =  -1.4185597224417E+01
(PID.TID 0000.0001) %MON dynstat_eta_mean             =  -2.5028084436631E+00
(PID.TID 0000.0001) %MON dynstat_eta_sd               =   4.9495604410704E+00
(PID.TID 0000.0001) %MON dynstat_eta_del2             =   2.0715615695673E-01
(PID.TID 0000.0001) %MON dynstat_uvel_max             =   7.2642189028613E-03
(PID.TID 0000.0001) %MON dynstat_uvel_min             =  -3.2990308473780E-02
(PID.TID 0000.0001) %MON dynstat_uvel_mean            =  -1.1895146859638E-07
(PID.TID 0000.0001) %MON dynstat_uvel_sd              =   9.5743318720904E-04
(PID.TID 0000.0001) %MON dynstat_uvel_del2            =   1.4029110695294E-06
(PID.TID 0000.0001) %MON dynstat_vvel_max             =   2.4809453872664E-02
(PID.TID 0000.0001) %MON dynstat_vvel_min             =  -1.0695062437327E-02
(PID.TID 0000.0001) %MON dynstat_vvel_mean            =   1.4820010285168E-05
(PID.TID 0000.0001) %MON dynstat_vvel_sd              =   5.4936518424123E-04
(PID.TID 0000.0001) %MON dynstat_vvel_del2            =   1.1132955887036E-06
(PID.TID 0000.0001) %MON dynstat_wvel_max             =   1.2861820070815E-03
(PID.TID 0000.0001) %MON dynstat_wvel_min             =  -1.2392390784892E-03
(PID.TID 0000.0001) %MON dynstat_wvel_mean            =   6.7474304810652E-09
(PID.TID 0000.0001) %MON dynstat_wvel_sd              =   2.1492230147015E-05
(PID.TID 0000.0001) %MON dynstat_wvel_del2            =   8.9310478875897E-08
(PID.TID 0000.0001) %MON dynstat_theta_max            =   1.2000000000000E+00
(PID.TID 0000.0001) %MON dynstat_theta_min            =  -1.0000000000000E+00
(PID.TID 0000.0001) %MON dynstat_theta_mean           =   5.6860604010329E-01
(PID.TID 0000.0001) %MON dynstat_theta_sd             =   8.6831520638059E-01
(PID.TID 0000.0001) %MON dynstat_theta_del2           =   3.5888428722596E-06
(PID.TID 0000.0001) %MON dynstat_salt_max             =   3.4700000000000E+01
(PID.TID 0000.0001) %MON dynstat_salt_min             =   3.4000000000000E+01
(PID.TID 0000.0001) %MON dynstat_salt_mean            =   3.4499056568050E+01
(PID.TID 0000.0001) %MON dynstat_salt_sd              =   2.7626454354952E-01
(PID.TID 0000.0001) %MON dynstat_salt_del2            =   1.4164808752874E-06
(PID.TID 0000.0001) %MON advcfl_uvel_max              =   3.2990308473780E-03
(PID.TID 0000.0001) %MON advcfl_vvel_max              =   2.4809453872664E-03
(PID.TID 0000.0001) %MON advcfl_wvel_max              =   6.4309100354077E-03
(PID.TID 0000.0001) %MON advcfl_W_hf_max              =   6.4309100354077E-03
(PID.TID 0000.0001) %MON pe_b_mean                    =  -8.2943401148221E-01
(PID.TID 0000.0001) %MON ke_max                       =   4.0330320215271E-04
(PID.TID 0000.0001) %MON ke_mean                      =   6.0025555781166E-07
(PID.TID 0000.0001) %MON ke_vol                       =   4.2724733606359E+12
(PID.TID 0000.0001) // =======================================================
(PID.TID 0000.0001) // End MONITOR dynamic field statistics
(PID.TID 0000.0001) // =======================================================
(PID.TID 0000.0001) // =======================================================
(PID.TID 0000.0001) // Begin OBCS MONITOR field statistics
(PID.TID 0000.0001) // =======================================================
(PID.TID 0000.0001) %MON obc_N_vVel_max               =   1.4571804571734E-05
(PID.TID 0000.0001) %MON obc_N_vVel_min               =   1.4571804571733E-05
(PID.TID 0000.0001) %MON obc_N_vVel_mean              =   1.4571804571733E-05
(PID.TID 0000.0001) %MON obc_N_vVel_sd                =   2.5724394843075E-12
(PID.TID 0000.0001) %MON obc_N_vVel_Int               =   9.6173910173440E+02
(PID.TID 0000.0001) // =======================================================
(PID.TID 0000.0001) // End OBCS MONITOR field statistics
(PID.TID 0000.0001) // =======================================================
 cg2d: Sum(rhs),rhsMax =   4.50589494446678E+00  2.99944952543286E+02
(PID.TID 0000.0001)      cg2d_init_res =   7.91345813616488E-06
(PID.TID 0000.0001)      cg2d_iters(min,last) =      -1      83
(PID.TID 0000.0001)      cg2d_last_res =   9.02668679712891E-12
(PID.TID 0000.0001) // =======================================================
(PID.TID 0000.0001) // Begin MONITOR dynamic field statistics
(PID.TID 0000.0001) // =======================================================
(PID.TID 0000.0001) %MON time_tsnumber                =                  1193
(PID.TID 0000.0001) %MON time_secondsf                =   1.1930000000000E+05
(PID.TID 0000.0001) %MON dynstat_eta_max              =   5.7993390024404E+00
(PID.TID 0000.0001) %MON dynstat_eta_min              =  -1.4185626854531E+01
(PID.TID 0000.0001) %MON dynstat_eta_mean             =  -2.5028156394132E+00
(PID.TID 0000.0001) %MON dynstat_eta_sd               =   4.9495632088086E+00
(PID.TID 0000.0001) %MON dynstat_eta_del2             =   2.0715619467721E-01
(PID.TID 0000.0001) %MON dynstat_uvel_max             =   7.2809695182130E-03
(PID.TID 0000.0001) %MON dynstat_uvel_min             =  -3.3069351107807E-02
(PID.TID 0000.0001) %MON dynstat_uvel_mean            =  -1.1896778511262E-07
(PID.TID 0000.0001) %MON dynstat_uvel_sd              =   9.5967013543313E-04
(PID.TID 0000.0001) %MON dynstat_uvel_del2            =   1.4062854823278E-06
(PID.TID 0000.0001) %MON dynstat_vvel_max             =   2.4858638961843E-02
(PID.TID 0000.0001) %MON dynstat_vvel_min             =  -1.0722863611877E-02
(PID.TID 0000.0001) %MON dynstat_vvel_mean            =   1.4829948829354E-05
(PID.TID 0000.0001) %MON dynstat_vvel_sd              =   5.5041331897035E-04
(PID.TID 0000.0001) %MON dynstat_vvel_del2            =   1.1155635415598E-06
(PID.TID 0000.0001) %MON dynstat_wvel_max             =   1.2890665633355E-03
(PID.TID 0000.0001) %MON dynstat_wvel_min             =  -1.2419687126309E-03
(PID.TID 0000.0001) %MON dynstat_wvel_mean            =   6.7992703317223E-09
(PID.TID 0000.0001) %MON dynstat_wvel_sd              =   2.1496404739196E-05
(PID.TID 0000.0001) %MON dynstat_wvel_del2            =   8.9285548186729E-08
(PID.TID 0000.0001) %MON dynstat_theta_max            =   1.2000000000000E+00
(PID.TID 0000.0001) %MON dynstat_theta_min            =  -1.0000000000000E+00
(PID.TID 0000.0001) %MON dynstat_theta_mean           =   5.6860496603569E-01
(PID.TID 0000.0001) %MON dynstat_theta_sd             =   8.6831462670427E-01
(PID.TID 0000.0001) %MON dynstat_theta_del2           =   3.5959535075577E-06
(PID.TID 0000.0001) %MON dynstat_salt_max             =   3.4700000000000E+01
(PID.TID 0000.0001) %MON dynstat_salt_min             =   3.4000000000000E+01
(PID.TID 0000.0001) %MON dynstat_salt_mean            =   3.4499056138177E+01
(PID.TID 0000.0001) %MON dynstat_salt_sd              =   2.7626432042778E-01
(PID.TID 0000.0001) %MON dynstat_salt_del2            =   1.4193411796651E-06
(PID.TID 0000.0001) %MON advcfl_uvel_max              =   3.3069351107807E-03
(PID.TID 0000.0001) %MON advcfl_vvel_max              =   2.4858638961843E-03
(PID.TID 0000.0001) %MON advcfl_wvel_max              =   6.4453328166774E-03
(PID.TID 0000.0001) %MON advcfl_W_hf_max              =   6.4453328166774E-03
(PID.TID 0000.0001) %MON pe_b_mean                    =  -8.2943568032937E-01
(PID.TID 0000.0001) %MON ke_max                       =   4.0536457347195E-04
(PID.TID 0000.0001) %MON ke_mean                      =   6.0293376191034E-07
(PID.TID 0000.0001) %MON ke_vol                       =   4.2724733178446E+12
(PID.TID 0000.0001) // =======================================================
(PID.TID 0000.0001) // End MONITOR dynamic field statistics
(PID.TID 0000.0001) // =======================================================
(PID.TID 0000.0001) // =======================================================
(PID.TID 0000.0001) // Begin OBCS MONITOR field statistics
(PID.TID 0000.0001) // =======================================================
(PID.TID 0000.0001) %MON obc_N_vVel_max               =   1.4578605647716E-05
(PID.TID 0000.0001) %MON obc_N_vVel_min               =   1.4578605647716E-05
(PID.TID 0000.0001) %MON obc_N_vVel_mean              =   1.4578605647716E-05
(PID.TID 0000.0001) %MON obc_N_vVel_sd                =   5.5694948577711E-13
(PID.TID 0000.0001) %MON obc_N_vVel_Int               =   9.6218797274928E+02
(PID.TID 0000.0001) // =======================================================
(PID.TID 0000.0001) // End OBCS MONITOR field statistics
(PID.TID 0000.0001) // =======================================================
 cg2d: Sum(rhs),rhsMax =   4.50590674358167E+00  2.99945028872207E+02
(PID.TID 0000.0001)      cg2d_init_res =   7.93754226864661E-06
(PID.TID 0000.0001)      cg2d_iters(min,last) =      -1      83
(PID.TID 0000.0001)      cg2d_last_res =   9.17591803741561E-12
(PID.TID 0000.0001) // =======================================================
(PID.TID 0000.0001) // Begin MONITOR dynamic field statistics
(PID.TID 0000.0001) // =======================================================
(PID.TID 0000.0001) %MON time_tsnumber                =                  1194
(PID.TID 0000.0001) %MON time_secondsf                =   1.1940000000000E+05
(PID.TID 0000.0001) %MON dynstat_eta_max              =   5.7993261036553E+00
(PID.TID 0000.0001) %MON dynstat_eta_min              =  -1.4185656502629E+01
(PID.TID 0000.0001) %MON dynstat_eta_mean             =  -2.5028228301835E+00
(PID.TID 0000.0001) %MON dynstat_eta_sd               =   4.9495659770916E+00
(PID.TID 0000.0001) %MON dynstat_eta_del2             =   2.0715623246299E-01
(PID.TID 0000.0001) %MON dynstat_uvel_max             =   7.2977496067317E-03
(PID.TID 0000.0001) %MON dynstat_uvel_min             =  -3.3148518987845E-02
(PID.TID 0000.0001) %MON dynstat_uvel_mean            =  -1.1834600956947E-07
(PID.TID 0000.0001) %MON dynstat_uvel_sd              =   9.6191157092006E-04
(PID.TID 0000.0001) %MON dynstat_uvel_del2            =   1.4096689312408E-06
(PID.TID 0000.0001) %MON dynstat_vvel_max             =   2.4907842038565E-02
(PID.TID 0000.0001) %MON dynstat_vvel_min             =  -1.0750727886004E-02
(PID.TID 0000.0001) %MON dynstat_vvel_mean            =   1.4843691950634E-05
(PID.TID 0000.0001) %MON dynstat_vvel_sd              =   5.5146480058179E-04
(PID.TID 0000.0001) %MON dynstat_vvel_del2            =   1.1178491986564E-06
(PID.TID 0000.0001) %MON dynstat_wvel_max             =   1.2919542397264E-03
(PID.TID 0000.0001) %MON dynstat_wvel_min             =  -1.2447011859565E-03
(PID.TID 0000.0001) %MON dynstat_wvel_mean            =   6.8483138963371E-09
(PID.TID 0000.0001) %MON dynstat_wvel_sd              =   2.1508406106073E-05
(PID.TID 0000.0001) %MON dynstat_wvel_del2            =   8.9294936876949E-08
(PID.TID 0000.0001) %MON dynstat_theta_max            =   1.2000000000000E+00
(PID.TID 0000.0001) %MON dynstat_theta_min            =  -1.0000000000000E+00
(PID.TID 0000.0001) %MON dynstat_theta_mean           =   5.6860389009236E-01
(PID.TID 0000.0001) %MON dynstat_theta_sd             =   8.6831404604512E-01
(PID.TID 0000.0001) %MON dynstat_theta_del2           =   3.6030598428149E-06
(PID.TID 0000.0001) %MON dynstat_salt_max             =   3.4700000000000E+01
(PID.TID 0000.0001) %MON dynstat_salt_min             =   3.4000000000000E+01
(PID.TID 0000.0001) %MON dynstat_salt_mean            =   3.4499055707554E+01
(PID.TID 0000.0001) %MON dynstat_salt_sd              =   2.7626409692892E-01
(PID.TID 0000.0001) %MON dynstat_salt_del2            =   1.4222017274291E-06
(PID.TID 0000.0001) %MON advcfl_uvel_max              =   3.3148518987845E-03
(PID.TID 0000.0001) %MON advcfl_vvel_max              =   2.4907842038565E-03
(PID.TID 0000.0001) %MON advcfl_wvel_max              =   6.4597711986318E-03
(PID.TID 0000.0001) %MON advcfl_W_hf_max              =   6.4597711986318E-03
(PID.TID 0000.0001) %MON pe_b_mean                    =  -8.2943734746212E-01
(PID.TID 0000.0001) %MON ke_max                       =   4.0743501892042E-04
(PID.TID 0000.0001) %MON ke_mean                      =   6.0562410180793E-07
(PID.TID 0000.0001) %MON ke_vol                       =   4.2724732751019E+12
(PID.TID 0000.0001) // =======================================================
(PID.TID 0000.0001) // End MONITOR dynamic field statistics
(PID.TID 0000.0001) // =======================================================
(PID.TID 0000.0001) // =======================================================
(PID.TID 0000.0001) // Begin OBCS MONITOR field statistics
(PID.TID 0000.0001) // =======================================================
(PID.TID 0000.0001) %MON obc_N_vVel_max               =   1.4588299590418E-05
(PID.TID 0000.0001) %MON obc_N_vVel_min               =   1.4588299590418E-05
(PID.TID 0000.0001) %MON obc_N_vVel_mean              =   1.4588299590418E-05
(PID.TID 0000.0001) %MON obc_N_vVel_sd                =   3.9151871891869E-12
(PID.TID 0000.0001) %MON obc_N_vVel_Int               =   9.6282777296759E+02
(PID.TID 0000.0001) // =======================================================
(PID.TID 0000.0001) // End OBCS MONITOR field statistics
(PID.TID 0000.0001) // =======================================================
 cg2d: Sum(rhs),rhsMax =   4.50591852989903E+00  2.99945105775856E+02
(PID.TID 0000.0001)      cg2d_init_res =   7.96353578443378E-06
(PID.TID 0000.0001)      cg2d_iters(min,last) =      -1      83
(PID.TID 0000.0001)      cg2d_last_res =   9.27362400872400E-12
(PID.TID 0000.0001) // =======================================================
(PID.TID 0000.0001) // Begin MONITOR dynamic field statistics
(PID.TID 0000.0001) // =======================================================
(PID.TID 0000.0001) %MON time_tsnumber                =                  1195
(PID.TID 0000.0001) %MON time_secondsf                =   1.1950000000000E+05
(PID.TID 0000.0001) %MON dynstat_eta_max              =   5.7993131803202E+00
(PID.TID 0000.0001) %MON dynstat_eta_min              =  -1.4185686125116E+01
(PID.TID 0000.0001) %MON dynstat_eta_mean             =  -2.5028300186444E+00
(PID.TID 0000.0001) %MON dynstat_eta_sd               =   4.9495687477929E+00
(PID.TID 0000.0001) %MON dynstat_eta_del2             =   2.0715627031466E-01
(PID.TID 0000.0001) %MON dynstat_uvel_max             =   7.3145594221238E-03
(PID.TID 0000.0001) %MON dynstat_uvel_min             =  -3.3227811350835E-02
(PID.TID 0000.0001) %MON dynstat_uvel_mean            =  -1.1707878945510E-07
(PID.TID 0000.0001) %MON dynstat_uvel_sd              =   9.6415749160113E-04
(PID.TID 0000.0001) %MON dynstat_uvel_del2            =   1.4130614009176E-06
(PID.TID 0000.0001) %MON dynstat_vvel_max             =   2.4957061764112E-02
(PID.TID 0000.0001) %MON dynstat_vvel_min             =  -1.0778654799976E-02
(PID.TID 0000.0001) %MON dynstat_vvel_mean            =   1.4860688295013E-05
(PID.TID 0000.0001) %MON dynstat_vvel_sd              =   5.5251989991646E-04
(PID.TID 0000.0001) %MON dynstat_vvel_del2            =   1.1201538656308E-06
(PID.TID 0000.0001) %MON dynstat_wvel_max             =   1.2948448755150E-03
(PID.TID 0000.0001) %MON dynstat_wvel_min             =  -1.2474365406750E-03
(PID.TID 0000.0001) %MON dynstat_wvel_mean            =   6.8984634566592E-09
(PID.TID 0000.0001) %MON dynstat_wvel_sd              =   2.1529479565681E-05
(PID.TID 0000.0001) %MON dynstat_wvel_del2            =   8.9344889311261E-08
(PID.TID 0000.0001) %MON dynstat_theta_max            =   1.2000000000000E+00
(PID.TID 0000.0001) %MON dynstat_theta_min            =  -1.0000000000000E+00
(PID.TID 0000.0001) %MON dynstat_theta_mean           =   5.6860281227366E-01
(PID.TID 0000.0001) %MON dynstat_theta_sd             =   8.6831346440237E-01
(PID.TID 0000.0001) %MON dynstat_theta_del2           =   3.6101637094316E-06
(PID.TID 0000.0001) %MON dynstat_salt_max             =   3.4700000000000E+01
(PID.TID 0000.0001) %MON dynstat_salt_min             =   3.4000000000000E+01
(PID.TID 0000.0001) %MON dynstat_salt_mean            =   3.4499055276178E+01
(PID.TID 0000.0001) %MON dynstat_salt_sd              =   2.7626387305262E-01
(PID.TID 0000.0001) %MON dynstat_salt_del2            =   1.4250618717205E-06
(PID.TID 0000.0001) %MON advcfl_uvel_max              =   3.3227811350835E-03
(PID.TID 0000.0001) %MON advcfl_vvel_max              =   2.4957061764112E-03
(PID.TID 0000.0001) %MON advcfl_wvel_max              =   6.4742243775748E-03
(PID.TID 0000.0001) %MON advcfl_W_hf_max              =   6.4742243775748E-03
(PID.TID 0000.0001) %MON pe_b_mean                    =  -8.2943901350030E-01
(PID.TID 0000.0001) %MON ke_max                       =   4.0951454869182E-04
(PID.TID 0000.0001) %MON ke_mean                      =   6.0832675733061E-07
(PID.TID 0000.0001) %MON ke_vol                       =   4.2724732323887E+12
(PID.TID 0000.0001) // =======================================================
(PID.TID 0000.0001) // End MONITOR dynamic field statistics
(PID.TID 0000.0001) // =======================================================
(PID.TID 0000.0001) // =======================================================
(PID.TID 0000.0001) // Begin OBCS MONITOR field statistics
(PID.TID 0000.0001) // =======================================================
(PID.TID 0000.0001) %MON obc_N_vVel_max               =   1.4600418067784E-05
(PID.TID 0000.0001) %MON obc_N_vVel_min               =   1.4600418067783E-05
(PID.TID 0000.0001) %MON obc_N_vVel_mean              =   1.4600418067783E-05
(PID.TID 0000.0001) %MON obc_N_vVel_sd                =   3.3954130510820E-12
(PID.TID 0000.0001) %MON obc_N_vVel_Int               =   9.6362759247371E+02
(PID.TID 0000.0001) // =======================================================
(PID.TID 0000.0001) // End OBCS MONITOR field statistics
(PID.TID 0000.0001) // =======================================================
 cg2d: Sum(rhs),rhsMax =   4.50593030855296E+00  2.99945183276822E+02
(PID.TID 0000.0001)      cg2d_init_res =   7.99120280297509E-06
(PID.TID 0000.0001)      cg2d_iters(min,last) =      -1      83
(PID.TID 0000.0001)      cg2d_last_res =   9.28460334844493E-12
(PID.TID 0000.0001) // =======================================================
(PID.TID 0000.0001) // Begin MONITOR dynamic field statistics
(PID.TID 0000.0001) // =======================================================
(PID.TID 0000.0001) %MON time_tsnumber                =                  1196
(PID.TID 0000.0001) %MON time_secondsf                =   1.1960000000000E+05
(PID.TID 0000.0001) %MON dynstat_eta_max              =   5.7993002033861E+00
(PID.TID 0000.0001) %MON dynstat_eta_min              =  -1.4185715716111E+01
(PID.TID 0000.0001) %MON dynstat_eta_mean             =  -2.5028372078361E+00
(PID.TID 0000.0001) %MON dynstat_eta_sd               =   4.9495715226499E+00
(PID.TID 0000.0001) %MON dynstat_eta_del2             =   2.0715630823279E-01
(PID.TID 0000.0001) %MON dynstat_uvel_max             =   7.3313992742641E-03
(PID.TID 0000.0001) %MON dynstat_uvel_min             =  -3.3307227510110E-02
(PID.TID 0000.0001) %MON dynstat_uvel_mean            =  -1.1528813561705E-07
(PID.TID 0000.0001) %MON dynstat_uvel_sd              =   9.6640791907626E-04
(PID.TID 0000.0001) %MON dynstat_uvel_del2            =   1.4164628757850E-06
(PID.TID 0000.0001) %MON dynstat_vvel_max             =   2.5006305049581E-02
(PID.TID 0000.0001) %MON dynstat_vvel_min             =  -1.0806644014281E-02
(PID.TID 0000.0001) %MON dynstat_vvel_mean            =   1.4880717238939E-05
(PID.TID 0000.0001) %MON dynstat_vvel_sd              =   5.5357874096760E-04
(PID.TID 0000.0001) %MON dynstat_vvel_del2            =   1.1224780427304E-06
(PID.TID 0000.0001) %MON dynstat_wvel_max             =   1.2977383524724E-03
(PID.TID 0000.0001) %MON dynstat_wvel_min             =  -1.2501748110824E-03
(PID.TID 0000.0001) %MON dynstat_wvel_mean            =   6.9512851896259E-09
(PID.TID 0000.0001) %MON dynstat_wvel_sd              =   2.1560284118263E-05
(PID.TID 0000.0001) %MON dynstat_wvel_del2            =   8.9439209266234E-08
(PID.TID 0000.0001) %MON dynstat_theta_max            =   1.2000000000000E+00
(PID.TID 0000.0001) %MON dynstat_theta_min            =  -1.0000000000000E+00
(PID.TID 0000.0001) %MON dynstat_theta_mean           =   5.6860173257849E-01
(PID.TID 0000.0001) %MON dynstat_theta_sd             =   8.6831288177443E-01
(PID.TID 0000.0001) %MON dynstat_theta_del2           =   3.6172596045795E-06
(PID.TID 0000.0001) %MON dynstat_salt_max             =   3.4700000000000E+01
(PID.TID 0000.0001) %MON dynstat_salt_min             =   3.4000000000000E+01
(PID.TID 0000.0001) %MON dynstat_salt_mean            =   3.4499054844050E+01
(PID.TID 0000.0001) %MON dynstat_salt_sd              =   2.7626364879823E-01
(PID.TID 0000.0001) %MON dynstat_salt_del2            =   1.4279211408293E-06
(PID.TID 0000.0001) %MON advcfl_uvel_max              =   3.3307227510110E-03
(PID.TID 0000.0001) %MON advcfl_vvel_max              =   2.5006305049581E-03
(PID.TID 0000.0001) %MON advcfl_wvel_max              =   6.4886917623620E-03
(PID.TID 0000.0001) %MON advcfl_W_hf_max              =   6.4886917623620E-03
(PID.TID 0000.0001) %MON pe_b_mean                    =  -8.2944067919125E-01
(PID.TID 0000.0001) %MON ke_max                       =   4.1160317517180E-04
(PID.TID 0000.0001) %MON ke_mean                      =   6.1104185550625E-07
(PID.TID 0000.0001) %MON ke_vol                       =   4.2724731896893E+12
(PID.TID 0000.0001) // =======================================================
(PID.TID 0000.0001) // End MONITOR dynamic field statistics
(PID.TID 0000.0001) // =======================================================
(PID.TID 0000.0001) // =======================================================
(PID.TID 0000.0001) // Begin OBCS MONITOR field statistics
(PID.TID 0000.0001) // =======================================================
(PID.TID 0000.0001) %MON obc_N_vVel_max               =   1.4615295316040E-05
(PID.TID 0000.0001) %MON obc_N_vVel_min               =   1.4615295316040E-05
(PID.TID 0000.0001) %MON obc_N_vVel_mean              =   1.4615295316040E-05
(PID.TID 0000.0001) %MON obc_N_vVel_sd                =  -1.8611563782443E-24
(PID.TID 0000.0001) %MON obc_N_vVel_Int               =   9.6460949085865E+02
(PID.TID 0000.0001) // =======================================================
(PID.TID 0000.0001) // End OBCS MONITOR field statistics
(PID.TID 0000.0001) // =======================================================
 cg2d: Sum(rhs),rhsMax =   4.50594208563062E+00  2.99945261390454E+02
(PID.TID 0000.0001)      cg2d_init_res =   8.02023202549812E-06
(PID.TID 0000.0001)      cg2d_iters(min,last) =      -1      83
(PID.TID 0000.0001)      cg2d_last_res =   9.21226765428070E-12
(PID.TID 0000.0001) // =======================================================
(PID.TID 0000.0001) // Begin MONITOR dynamic field statistics
(PID.TID 0000.0001) // =======================================================
(PID.TID 0000.0001) %MON time_tsnumber                =                  1197
(PID.TID 0000.0001) %MON time_secondsf                =   1.1970000000000E+05
(PID.TID 0000.0001) %MON dynstat_eta_max              =   5.7992871703557E+00
(PID.TID 0000.0001) %MON dynstat_eta_min              =  -1.4185745294054E+01
(PID.TID 0000.0001) %MON dynstat_eta_mean             =  -2.5028444012680E+00
(PID.TID 0000.0001) %MON dynstat_eta_sd               =   4.9495743029467E+00
(PID.TID 0000.0001) %MON dynstat_eta_del2             =   2.0715634621789E-01
(PID.TID 0000.0001) %MON dynstat_uvel_max             =   7.3482694102580E-03
(PID.TID 0000.0001) %MON dynstat_uvel_min             =  -3.3386767260913E-02
(PID.TID 0000.0001) %MON dynstat_uvel_mean            =  -1.1325444542876E-07
(PID.TID 0000.0001) %MON dynstat_uvel_sd              =   9.6866288648672E-04
(PID.TID 0000.0001) %MON dynstat_uvel_del2            =   1.4198733425874E-06
(PID.TID 0000.0001) %MON dynstat_vvel_max             =   2.5055577971584E-02
(PID.TID 0000.0001) %MON dynstat_vvel_min             =  -1.0834695647830E-02
(PID.TID 0000.0001) %MON dynstat_vvel_mean            =   1.4903768991722E-05
(PID.TID 0000.0001) %MON dynstat_vvel_sd              =   5.5464131757833E-04
(PID.TID 0000.0001) %MON dynstat_vvel_del2            =   1.1248214113484E-06
(PID.TID 0000.0001) %MON dynstat_wvel_max             =   1.3006346456375E-03
(PID.TID 0000.0001) %MON dynstat_wvel_min             =  -1.2529159942667E-03
(PID.TID 0000.0001) %MON dynstat_wvel_mean            =   7.0055987057713E-09
(PID.TID 0000.0001) %MON dynstat_wvel_sd              =   2.1600862137610E-05
(PID.TID 0000.0001) %MON dynstat_wvel_del2            =   8.9579079157470E-08
(PID.TID 0000.0001) %MON dynstat_theta_max            =   1.2000000000000E+00
(PID.TID 0000.0001) %MON dynstat_theta_min            =  -1.0000000000000E+00
(PID.TID 0000.0001) %MON dynstat_theta_mean           =   5.6860065100470E-01
(PID.TID 0000.0001) %MON dynstat_theta_sd             =   8.6831229815737E-01
(PID.TID 0000.0001) %MON dynstat_theta_del2           =   3.6243473813515E-06
(PID.TID 0000.0001) %MON dynstat_salt_max             =   3.4700000000000E+01
(PID.TID 0000.0001) %MON dynstat_salt_min             =   3.4000000000000E+01
(PID.TID 0000.0001) %MON dynstat_salt_mean            =   3.4499054411168E+01
(PID.TID 0000.0001) %MON dynstat_salt_sd              =   2.7626342416463E-01
(PID.TID 0000.0001) %MON dynstat_salt_del2            =   1.4307795086589E-06
(PID.TID 0000.0001) %MON advcfl_uvel_max              =   3.3386767260913E-03
(PID.TID 0000.0001) %MON advcfl_vvel_max              =   2.5055577971584E-03
(PID.TID 0000.0001) %MON advcfl_wvel_max              =   6.5031732281876E-03
(PID.TID 0000.0001) %MON advcfl_W_hf_max              =   6.5031732281876E-03
(PID.TID 0000.0001) %MON pe_b_mean                    =  -8.2944234535587E-01
(PID.TID 0000.0001) %MON ke_max                       =   4.1370092405658E-04
(PID.TID 0000.0001) %MON ke_mean                      =   6.1376946611707E-07
(PID.TID 0000.0001) %MON ke_vol                       =   4.2724731469855E+12
(PID.TID 0000.0001) // =======================================================
(PID.TID 0000.0001) // End MONITOR dynamic field statistics
(PID.TID 0000.0001) // =======================================================
(PID.TID 0000.0001) // =======================================================
(PID.TID 0000.0001) // Begin OBCS MONITOR field statistics
(PID.TID 0000.0001) // =======================================================
(PID.TID 0000.0001) %MON obc_N_vVel_max               =   1.4633355496379E-05
(PID.TID 0000.0001) %MON obc_N_vVel_min               =   1.4633355496378E-05
(PID.TID 0000.0001) %MON obc_N_vVel_mean              =   1.4633355496378E-05
(PID.TID 0000.0001) %MON obc_N_vVel_sd                =   4.7694304529166E-12
(PID.TID 0000.0001) %MON obc_N_vVel_Int               =   9.6580146276096E+02
(PID.TID 0000.0001) // =======================================================
(PID.TID 0000.0001) // End OBCS MONITOR field statistics
(PID.TID 0000.0001) // =======================================================
 cg2d: Sum(rhs),rhsMax =   4.50595386738709E+00  2.99945340125400E+02
(PID.TID 0000.0001)      cg2d_init_res =   8.05031941302431E-06
(PID.TID 0000.0001)      cg2d_iters(min,last) =      -1      83
(PID.TID 0000.0001)      cg2d_last_res =   9.09217618794387E-12
(PID.TID 0000.0001) // =======================================================
(PID.TID 0000.0001) // Begin MONITOR dynamic field statistics
(PID.TID 0000.0001) // =======================================================
(PID.TID 0000.0001) %MON time_tsnumber                =                  1198
(PID.TID 0000.0001) %MON time_secondsf                =   1.1980000000000E+05
(PID.TID 0000.0001) %MON dynstat_eta_max              =   5.7992740880068E+00
(PID.TID 0000.0001) %MON dynstat_eta_min              =  -1.4185774880608E+01
(PID.TID 0000.0001) %MON dynstat_eta_mean             =  -2.5028516024866E+00
(PID.TID 0000.0001) %MON dynstat_eta_sd               =   4.9495770895547E+00
(PID.TID 0000.0001) %MON dynstat_eta_del2             =   2.0715638427044E-01
(PID.TID 0000.0001) %MON dynstat_uvel_max             =   7.3651699335215E-03
(PID.TID 0000.0001) %MON dynstat_uvel_min             =  -3.3466430991976E-02
(PID.TID 0000.0001) %MON dynstat_uvel_mean            =  -1.1131938538111E-07
(PID.TID 0000.0001) %MON dynstat_uvel_sd              =   9.7092242735216E-04
(PID.TID 0000.0001) %MON dynstat_uvel_del2            =   1.4232927898191E-06
(PID.TID 0000.0001) %MON dynstat_vvel_max             =   2.5104882394382E-02
(PID.TID 0000.0001) %MON dynstat_vvel_min             =  -1.0862810348186E-02
(PID.TID 0000.0001) %MON dynstat_vvel_mean            =   1.4929820335273E-05
(PID.TID 0000.0001) %MON dynstat_vvel_sd              =   5.5570751555816E-04
(PID.TID 0000.0001) %MON dynstat_vvel_del2            =   1.1271828696285E-06
(PID.TID 0000.0001) %MON dynstat_wvel_max             =   1.3035337729354E-03
(PID.TID 0000.0001) %MON dynstat_wvel_min             =  -1.2556600428255E-03
(PID.TID 0000.0001) %MON dynstat_wvel_mean            =   7.0597471425350E-09
(PID.TID 0000.0001) %MON dynstat_wvel_sd              =   2.1650650346180E-05
(PID.TID 0000.0001) %MON dynstat_wvel_del2            =   8.9763042214228E-08
(PID.TID 0000.0001) %MON dynstat_theta_max            =   1.2000000000000E+00
(PID.TID 0000.0001) %MON dynstat_theta_min            =  -1.0000000000000E+00
(PID.TID 0000.0001) %MON dynstat_theta_mean           =   5.6859956755012E-01
(PID.TID 0000.0001) %MON dynstat_theta_sd             =   8.6831171354530E-01
(PID.TID 0000.0001) %MON dynstat_theta_del2           =   3.6314280519957E-06
(PID.TID 0000.0001) %MON dynstat_salt_max             =   3.4700000000000E+01
(PID.TID 0000.0001) %MON dynstat_salt_min             =   3.4000000000000E+01
(PID.TID 0000.0001) %MON dynstat_salt_mean            =   3.4499053977532E+01
(PID.TID 0000.0001) %MON dynstat_salt_sd              =   2.7626319914989E-01
(PID.TID 0000.0001) %MON dynstat_salt_del2            =   1.4336372809841E-06
(PID.TID 0000.0001) %MON advcfl_uvel_max              =   3.3466430991976E-03
(PID.TID 0000.0001) %MON advcfl_vvel_max              =   2.5104882394382E-03
(PID.TID 0000.0001) %MON advcfl_wvel_max              =   6.5176688646768E-03
(PID.TID 0000.0001) %MON advcfl_W_hf_max              =   6.5176688646768E-03
(PID.TID 0000.0001) %MON pe_b_mean                    =  -8.2944401277875E-01
(PID.TID 0000.0001) %MON ke_max                       =   4.1580783744121E-04
(PID.TID 0000.0001) %MON ke_mean                      =   6.1650959951913E-07
(PID.TID 0000.0001) %MON ke_vol                       =   4.2724731042565E+12
(PID.TID 0000.0001) // =======================================================
(PID.TID 0000.0001) // End MONITOR dynamic field statistics
(PID.TID 0000.0001) // =======================================================
(PID.TID 0000.0001) // =======================================================
(PID.TID 0000.0001) // Begin OBCS MONITOR field statistics
(PID.TID 0000.0001) // =======================================================
(PID.TID 0000.0001) %MON obc_N_vVel_max               =   1.4654631835637E-05
(PID.TID 0000.0001) %MON obc_N_vVel_min               =   1.4654631835637E-05
(PID.TID 0000.0001) %MON obc_N_vVel_mean              =   1.4654631835637E-05
(PID.TID 0000.0001) %MON obc_N_vVel_sd                =  -3.6447645740618E-24
(PID.TID 0000.0001) %MON obc_N_vVel_Int               =   9.6720570115205E+02
(PID.TID 0000.0001) // =======================================================
(PID.TID 0000.0001) // End OBCS MONITOR field statistics
(PID.TID 0000.0001) // =======================================================
 cg2d: Sum(rhs),rhsMax =   4.50596565950657E+00  2.99945419482534E+02
(PID.TID 0000.0001)      cg2d_init_res =   8.08111583113908E-06
(PID.TID 0000.0001)      cg2d_iters(min,last) =      -1      83
(PID.TID 0000.0001)      cg2d_last_res =   8.97572935476017E-12
(PID.TID 0000.0001) // =======================================================
(PID.TID 0000.0001) // Begin MONITOR dynamic field statistics
(PID.TID 0000.0001) // =======================================================
(PID.TID 0000.0001) %MON time_tsnumber                =                  1199
(PID.TID 0000.0001) %MON time_secondsf                =   1.1990000000000E+05
(PID.TID 0000.0001) %MON dynstat_eta_max              =   5.7992609654723E+00
(PID.TID 0000.0001) %MON dynstat_eta_min              =  -1.4185804490798E+01
(PID.TID 0000.0001) %MON dynstat_eta_mean             =  -2.5028588146567E+00
(PID.TID 0000.0001) %MON dynstat_eta_sd               =   4.9495798830493E+00
(PID.TID 0000.0001) %MON dynstat_eta_del2             =   2.0715642239064E-01
(PID.TID 0000.0001) %MON dynstat_uvel_max             =   7.3821008037385E-03
(PID.TID 0000.0001) %MON dynstat_uvel_min             =  -3.3546219492061E-02
(PID.TID 0000.0001) %MON dynstat_uvel_mean            =  -1.0977409332659E-07
(PID.TID 0000.0001) %MON dynstat_uvel_sd              =   9.7318656933928E-04
(PID.TID 0000.0001) %MON dynstat_uvel_del2            =   1.4267212070467E-06
(PID.TID 0000.0001) %MON dynstat_vvel_max             =   2.5154217344320E-02
(PID.TID 0000.0001) %MON dynstat_vvel_min             =  -1.0890989068024E-02
(PID.TID 0000.0001) %MON dynstat_vvel_mean            =   1.4958673218595E-05
(PID.TID 0000.0001) %MON dynstat_vvel_sd              =   5.5677713203080E-04
(PID.TID 0000.0001) %MON dynstat_vvel_del2            =   1.1295606096388E-06
(PID.TID 0000.0001) %MON dynstat_wvel_max             =   1.3064357512164E-03
(PID.TID 0000.0001) %MON dynstat_wvel_min             =  -1.2584068817734E-03
(PID.TID 0000.0001) %MON dynstat_wvel_mean            =   7.1127998913466E-09
(PID.TID 0000.0001) %MON dynstat_wvel_sd              =   2.1708529003833E-05
(PID.TID 0000.0001) %MON dynstat_wvel_del2            =   8.9987141701761E-08
(PID.TID 0000.0001) %MON dynstat_theta_max            =   1.2000000000000E+00
(PID.TID 0000.0001) %MON dynstat_theta_min            =  -1.0000000000000E+00
(PID.TID 0000.0001) %MON dynstat_theta_mean           =   5.6859848221256E-01
(PID.TID 0000.0001) %MON dynstat_theta_sd             =   8.6831112792813E-01
(PID.TID 0000.0001) %MON dynstat_theta_del2           =   3.6385034397409E-06
(PID.TID 0000.0001) %MON dynstat_salt_max             =   3.4700000000000E+01
(PID.TID 0000.0001) %MON dynstat_salt_min             =   3.4000000000000E+01
(PID.TID 0000.0001) %MON dynstat_salt_mean            =   3.4499053543141E+01
(PID.TID 0000.0001) %MON dynstat_salt_sd              =   2.7626297375093E-01
(PID.TID 0000.0001) %MON dynstat_salt_del2            =   1.4364949197619E-06
(PID.TID 0000.0001) %MON advcfl_uvel_max              =   3.3546219492061E-03
(PID.TID 0000.0001) %MON advcfl_vvel_max              =   2.5154217344320E-03
(PID.TID 0000.0001) %MON advcfl_wvel_max              =   6.5321787560821E-03
(PID.TID 0000.0001) %MON advcfl_W_hf_max              =   6.5321787560821E-03
(PID.TID 0000.0001) %MON pe_b_mean                    =  -8.2944568213402E-01
(PID.TID 0000.0001) %MON ke_max                       =   4.1805161099002E-04
(PID.TID 0000.0001) %MON ke_mean                      =   6.1926220846679E-07
(PID.TID 0000.0001) %MON ke_vol                       =   4.2724730614812E+12
(PID.TID 0000.0001) // =======================================================
(PID.TID 0000.0001) // End MONITOR dynamic field statistics
(PID.TID 0000.0001) // =======================================================
(PID.TID 0000.0001) // =======================================================
(PID.TID 0000.0001) // Begin OBCS MONITOR field statistics
(PID.TID 0000.0001) // =======================================================
(PID.TID 0000.0001) %MON obc_N_vVel_max               =   1.4678780772263E-05
(PID.TID 0000.0001) %MON obc_N_vVel_min               =   1.4678780772263E-05
(PID.TID 0000.0001) %MON obc_N_vVel_mean              =   1.4678780772263E-05
(PID.TID 0000.0001) %MON obc_N_vVel_sd                =  -3.6189151799195E-25
(PID.TID 0000.0001) %MON obc_N_vVel_Int               =   9.6879953096937E+02
(PID.TID 0000.0001) // =======================================================
(PID.TID 0000.0001) // End OBCS MONITOR field statistics
(PID.TID 0000.0001) // =======================================================
 cg2d: Sum(rhs),rhsMax =   4.50597746682392E+00  2.99945499453253E+02
(PID.TID 0000.0001)      cg2d_init_res =   8.11223244149245E-06
(PID.TID 0000.0001)      cg2d_iters(min,last) =      -1      83
(PID.TID 0000.0001)      cg2d_last_res =   8.90735886182991E-12
(PID.TID 0000.0001) // =======================================================
(PID.TID 0000.0001) // Begin MONITOR dynamic field statistics
(PID.TID 0000.0001) // =======================================================
(PID.TID 0000.0001) %MON time_tsnumber                =                  1200
(PID.TID 0000.0001) %MON time_secondsf                =   1.2000000000000E+05
(PID.TID 0000.0001) %MON dynstat_eta_max              =   5.7992478077215E+00
(PID.TID 0000.0001) %MON dynstat_eta_min              =  -1.4185834132740E+01
(PID.TID 0000.0001) %MON dynstat_eta_mean             =  -2.5028660403919E+00
(PID.TID 0000.0001) %MON dynstat_eta_sd               =   4.9495826837723E+00
(PID.TID 0000.0001) %MON dynstat_eta_del2             =   2.0715646057860E-01
(PID.TID 0000.0001) %MON dynstat_uvel_max             =   7.3990618996831E-03
(PID.TID 0000.0001) %MON dynstat_uvel_min             =  -3.3626133630039E-02
(PID.TID 0000.0001) %MON dynstat_uvel_mean            =  -1.0879211235239E-07
(PID.TID 0000.0001) %MON dynstat_uvel_sd              =   9.7545533284912E-04
(PID.TID 0000.0001) %MON dynstat_uvel_del2            =   1.4301585844586E-06
(PID.TID 0000.0001) %MON dynstat_vvel_max             =   2.5203581169214E-02
(PID.TID 0000.0001) %MON dynstat_vvel_min             =  -1.0919232731087E-02
(PID.TID 0000.0001) %MON dynstat_vvel_mean            =   1.4989918813778E-05
(PID.TID 0000.0001) %MON dynstat_vvel_sd              =   5.5784989139510E-04
(PID.TID 0000.0001) %MON dynstat_vvel_del2            =   1.1319522316854E-06
(PID.TID 0000.0001) %MON dynstat_wvel_max             =   1.3093405843876E-03
(PID.TID 0000.0001) %MON dynstat_wvel_min             =  -1.2611564354193E-03
(PID.TID 0000.0001) %MON dynstat_wvel_mean            =   7.1642461629487E-09
(PID.TID 0000.0001) %MON dynstat_wvel_sd              =   2.1772904781028E-05
(PID.TID 0000.0001) %MON dynstat_wvel_del2            =   9.0245200454368E-08
(PID.TID 0000.0001) %MON dynstat_theta_max            =   1.2000000000000E+00
(PID.TID 0000.0001) %MON dynstat_theta_min            =  -1.0000000000000E+00
(PID.TID 0000.0001) %MON dynstat_theta_mean           =   5.6859739498959E-01
(PID.TID 0000.0001) %MON dynstat_theta_sd             =   8.6831054129440E-01
(PID.TID 0000.0001) %MON dynstat_theta_del2           =   3.6455762729556E-06
(PID.TID 0000.0001) %MON dynstat_salt_max             =   3.4700000000000E+01
(PID.TID 0000.0001) %MON dynstat_salt_min             =   3.4000000000000E+01
(PID.TID 0000.0001) %MON dynstat_salt_mean            =   3.4499053107993E+01
(PID.TID 0000.0001) %MON dynstat_salt_sd              =   2.7626274796383E-01
(PID.TID 0000.0001) %MON dynstat_salt_del2            =   1.4393531420143E-06
(PID.TID 0000.0001) %MON advcfl_uvel_max              =   3.3626133630039E-03
(PID.TID 0000.0001) %MON advcfl_vvel_max              =   2.5203581169214E-03
(PID.TID 0000.0001) %MON advcfl_wvel_max              =   6.5467029219381E-03
(PID.TID 0000.0001) %MON advcfl_W_hf_max              =   6.5467029219381E-03
(PID.TID 0000.0001) %MON pe_b_mean                    =  -8.2944735395837E-01
(PID.TID 0000.0001) %MON ke_max                       =   4.2037123233640E-04
(PID.TID 0000.0001) %MON ke_mean                      =   6.2202719452341E-07
(PID.TID 0000.0001) %MON ke_vol                       =   4.2724730186409E+12
(PID.TID 0000.0001) // =======================================================
(PID.TID 0000.0001) // End MONITOR dynamic field statistics
(PID.TID 0000.0001) // =======================================================
(PID.TID 0000.0001) // =======================================================
(PID.TID 0000.0001) // Begin OBCS MONITOR field statistics
(PID.TID 0000.0001) // =======================================================
(PID.TID 0000.0001) %MON obc_N_vVel_max               =   1.4705307196939E-05
(PID.TID 0000.0001) %MON obc_N_vVel_min               =   1.4705307196938E-05
(PID.TID 0000.0001) %MON obc_N_vVel_mean              =   1.4705307196939E-05
(PID.TID 0000.0001) %MON obc_N_vVel_sd                =  -1.8663262570728E-23
(PID.TID 0000.0001) %MON obc_N_vVel_Int               =   9.7055027499796E+02
(PID.TID 0000.0001) // =======================================================
(PID.TID 0000.0001) // End OBCS MONITOR field statistics
(PID.TID 0000.0001) // =======================================================
 cg2d: Sum(rhs),rhsMax =   4.50598929333009E+00  2.99945580018410E+02
(PID.TID 0000.0001)      cg2d_init_res =   8.14327778857045E-06
(PID.TID 0000.0001)      cg2d_iters(min,last) =      -1      83
(PID.TID 0000.0001)      cg2d_last_res =   8.90588759743496E-12
(PID.TID 0000.0001) // =======================================================
(PID.TID 0000.0001) // Begin MONITOR dynamic field statistics
(PID.TID 0000.0001) // =======================================================
(PID.TID 0000.0001) %MON time_tsnumber                =                  1201
(PID.TID 0000.0001) %MON time_secondsf                =   1.2010000000000E+05
(PID.TID 0000.0001) %MON dynstat_eta_max              =   5.7992346142043E+00
(PID.TID 0000.0001) %MON dynstat_eta_min              =  -1.4185863810183E+01
(PID.TID 0000.0001) %MON dynstat_eta_mean             =  -2.5028732817493E+00
(PID.TID 0000.0001) %MON dynstat_eta_sd               =   4.9495854918367E+00
(PID.TID 0000.0001) %MON dynstat_eta_del2             =   2.0715649883422E-01
(PID.TID 0000.0001) %MON dynstat_uvel_max             =   7.4160530993836E-03
(PID.TID 0000.0001) %MON dynstat_uvel_min             =  -3.3706174090733E-02
(PID.TID 0000.0001) %MON dynstat_uvel_mean            =  -1.0841698347760E-07
(PID.TID 0000.0001) %MON dynstat_uvel_sd              =   9.7772873228268E-04
(PID.TID 0000.0001) %MON dynstat_uvel_del2            =   1.4336049122037E-06
(PID.TID 0000.0001) %MON dynstat_vvel_max             =   2.5252972623077E-02
(PID.TID 0000.0001) %MON dynstat_vvel_min             =  -1.0947541990692E-02
(PID.TID 0000.0001) %MON dynstat_vvel_mean            =   1.5022994376283E-05
(PID.TID 0000.0001) %MON dynstat_vvel_sd              =   5.5892546092501E-04
(PID.TID 0000.0001) %MON dynstat_vvel_del2            =   1.1343548879074E-06
(PID.TID 0000.0001) %MON dynstat_wvel_max             =   1.3122482665585E-03
(PID.TID 0000.0001) %MON dynstat_wvel_min             =  -1.2639086477418E-03
(PID.TID 0000.0001) %MON dynstat_wvel_mean            =   7.2134741344495E-09
(PID.TID 0000.0001) %MON dynstat_wvel_sd              =   2.1841821125928E-05
(PID.TID 0000.0001) %MON dynstat_wvel_del2            =   9.0529219803893E-08
(PID.TID 0000.0001) %MON dynstat_theta_max            =   1.2000000000000E+00
(PID.TID 0000.0001) %MON dynstat_theta_min            =  -1.0000000000000E+00
(PID.TID 0000.0001) %MON dynstat_theta_mean           =   5.6859630587836E-01
(PID.TID 0000.0001) %MON dynstat_theta_sd             =   8.6830995363557E-01
(PID.TID 0000.0001) %MON dynstat_theta_del2           =   3.6526499814228E-06
(PID.TID 0000.0001) %MON dynstat_salt_max             =   3.4700000000000E+01
(PID.TID 0000.0001) %MON dynstat_salt_min             =   3.4000000000000E+01
(PID.TID 0000.0001) %MON dynstat_salt_mean            =   3.4499052672088E+01
(PID.TID 0000.0001) %MON dynstat_salt_sd              =   2.7626252178587E-01
(PID.TID 0000.0001) %MON dynstat_salt_del2            =   1.4422128472270E-06
(PID.TID 0000.0001) %MON advcfl_uvel_max              =   3.3706174090733E-03
(PID.TID 0000.0001) %MON advcfl_vvel_max              =   2.5252972623077E-03
(PID.TID 0000.0001) %MON advcfl_wvel_max              =   6.5612413327925E-03
(PID.TID 0000.0001) %MON advcfl_W_hf_max              =   6.5612413327925E-03
(PID.TID 0000.0001) %MON pe_b_mean                    =  -8.2944902864610E-01
(PID.TID 0000.0001) %MON ke_max                       =   4.2270219018768E-04
(PID.TID 0000.0001) %MON ke_mean                      =   6.2480441831269E-07
(PID.TID 0000.0001) %MON ke_vol                       =   4.2724729757201E+12
(PID.TID 0000.0001) // =======================================================
(PID.TID 0000.0001) // End MONITOR dynamic field statistics
(PID.TID 0000.0001) // =======================================================
(PID.TID 0000.0001) // =======================================================
(PID.TID 0000.0001) // Begin OBCS MONITOR field statistics
(PID.TID 0000.0001) // =======================================================
(PID.TID 0000.0001) %MON obc_N_vVel_max               =   1.4733711379886E-05
(PID.TID 0000.0001) %MON obc_N_vVel_min               =   1.4733711379886E-05
(PID.TID 0000.0001) %MON obc_N_vVel_mean              =   1.4733711379886E-05
(PID.TID 0000.0001) %MON obc_N_vVel_sd                =  -6.6432942945665E-24
(PID.TID 0000.0001) %MON obc_N_vVel_Int               =   9.7242495107250E+02
(PID.TID 0000.0001) // =======================================================
(PID.TID 0000.0001) // End OBCS MONITOR field statistics
(PID.TID 0000.0001) // =======================================================
 cg2d: Sum(rhs),rhsMax =   4.50600114220007E+00  2.99945661148281E+02
(PID.TID 0000.0001)      cg2d_init_res =   8.17385567717346E-06
(PID.TID 0000.0001)      cg2d_iters(min,last) =      -1      83
(PID.TID 0000.0001)      cg2d_last_res =   8.96093130266480E-12
(PID.TID 0000.0001) // =======================================================
(PID.TID 0000.0001) // Begin MONITOR dynamic field statistics
(PID.TID 0000.0001) // =======================================================
(PID.TID 0000.0001) %MON time_tsnumber                =                  1202
(PID.TID 0000.0001) %MON time_secondsf                =   1.2020000000000E+05
(PID.TID 0000.0001) %MON dynstat_eta_max              =   5.7992213805586E+00
(PID.TID 0000.0001) %MON dynstat_eta_min              =  -1.4185893524380E+01
(PID.TID 0000.0001) %MON dynstat_eta_mean             =  -2.5028805402446E+00
(PID.TID 0000.0001) %MON dynstat_eta_sd               =   4.9495883071260E+00
(PID.TID 0000.0001) %MON dynstat_eta_del2             =   2.0715653715724E-01
(PID.TID 0000.0001) %MON dynstat_uvel_max             =   7.4330743399855E-03
(PID.TID 0000.0001) %MON dynstat_uvel_min             =  -3.3786341246641E-02
(PID.TID 0000.0001) %MON dynstat_uvel_mean            =  -1.0858768695769E-07
(PID.TID 0000.0001) %MON dynstat_uvel_sd              =   9.8000677811886E-04
(PID.TID 0000.0001) %MON dynstat_uvel_del2            =   1.4370601798301E-06
(PID.TID 0000.0001) %MON dynstat_vvel_max             =   2.5302390999548E-02
(PID.TID 0000.0001) %MON dynstat_vvel_min             =  -1.0975917162813E-02
(PID.TID 0000.0001) %MON dynstat_vvel_mean            =   1.5057269458978E-05
(PID.TID 0000.0001) %MON dynstat_vvel_sd              =   5.6000346858360E-04
(PID.TID 0000.0001) %MON dynstat_vvel_del2            =   1.1367654476891E-06
(PID.TID 0000.0001) %MON dynstat_wvel_max             =   1.3151587866283E-03
(PID.TID 0000.0001) %MON dynstat_wvel_min             =  -1.2666634895743E-03
(PID.TID 0000.0001) %MON dynstat_wvel_mean            =   7.2597253134761E-09
(PID.TID 0000.0001) %MON dynstat_wvel_sd              =   2.1913088241382E-05
(PID.TID 0000.0001) %MON dynstat_wvel_del2            =   9.0829872557842E-08
(PID.TID 0000.0001) %MON dynstat_theta_max            =   1.2000000000000E+00
(PID.TID 0000.0001) %MON dynstat_theta_min            =  -1.0000000000000E+00
(PID.TID 0000.0001) %MON dynstat_theta_mean           =   5.6859521487582E-01
(PID.TID 0000.0001) %MON dynstat_theta_sd             =   8.6830936494536E-01
(PID.TID 0000.0001) %MON dynstat_theta_del2           =   3.6597284948352E-06
(PID.TID 0000.0001) %MON dynstat_salt_max             =   3.4700000000000E+01
(PID.TID 0000.0001) %MON dynstat_salt_min             =   3.4000000000000E+01
(PID.TID 0000.0001) %MON dynstat_salt_mean            =   3.4499052235423E+01
(PID.TID 0000.0001) %MON dynstat_salt_sd              =   2.7626229521522E-01
(PID.TID 0000.0001) %MON dynstat_salt_del2            =   1.4450750639544E-06
(PID.TID 0000.0001) %MON advcfl_uvel_max              =   3.3786341246641E-03
(PID.TID 0000.0001) %MON advcfl_vvel_max              =   2.5302390999548E-03
(PID.TID 0000.0001) %MON advcfl_wvel_max              =   6.5757939331416E-03
(PID.TID 0000.0001) %MON advcfl_W_hf_max              =   6.5757939331416E-03
(PID.TID 0000.0001) %MON pe_b_mean                    =  -8.2945070644803E-01
(PID.TID 0000.0001) %MON ke_max                       =   4.2504454014083E-04
(PID.TID 0000.0001) %MON ke_mean                      =   6.2759371237163E-07
(PID.TID 0000.0001) %MON ke_vol                       =   4.2724729327064E+12
(PID.TID 0000.0001) // =======================================================
(PID.TID 0000.0001) // End MONITOR dynamic field statistics
(PID.TID 0000.0001) // =======================================================
(PID.TID 0000.0001) // =======================================================
(PID.TID 0000.0001) // Begin OBCS MONITOR field statistics
(PID.TID 0000.0001) // =======================================================
(PID.TID 0000.0001) %MON obc_N_vVel_max               =   1.4763505646595E-05
(PID.TID 0000.0001) %MON obc_N_vVel_min               =   1.4763505646595E-05
(PID.TID 0000.0001) %MON obc_N_vVel_mean              =   1.4763505646595E-05
(PID.TID 0000.0001) %MON obc_N_vVel_sd                =  -1.7732684381606E-23
(PID.TID 0000.0001) %MON obc_N_vVel_Int               =   9.7439137267528E+02
(PID.TID 0000.0001) // =======================================================
(PID.TID 0000.0001) // End OBCS MONITOR field statistics
(PID.TID 0000.0001) // =======================================================
 cg2d: Sum(rhs),rhsMax =   4.50601301574225E+00  2.99945742803428E+02
(PID.TID 0000.0001)      cg2d_init_res =   8.20357328485021E-06
(PID.TID 0000.0001)      cg2d_iters(min,last) =      -1      83
(PID.TID 0000.0001)      cg2d_last_res =   9.04448908695125E-12
(PID.TID 0000.0001) // =======================================================
(PID.TID 0000.0001) // Begin MONITOR dynamic field statistics
(PID.TID 0000.0001) // =======================================================
(PID.TID 0000.0001) %MON time_tsnumber                =                  1203
(PID.TID 0000.0001) %MON time_secondsf                =   1.2030000000000E+05
(PID.TID 0000.0001) %MON dynstat_eta_max              =   5.7992081011401E+00
(PID.TID 0000.0001) %MON dynstat_eta_min              =  -1.4185923275059E+01
(PID.TID 0000.0001) %MON dynstat_eta_mean             =  -2.5028878168310E+00
(PID.TID 0000.0001) %MON dynstat_eta_sd               =   4.9495911293237E+00
(PID.TID 0000.0001) %MON dynstat_eta_del2             =   2.0715657554726E-01
(PID.TID 0000.0001) %MON dynstat_uvel_max             =   7.4501256437252E-03
(PID.TID 0000.0001) %MON dynstat_uvel_min             =  -3.3866635153610E-02
(PID.TID 0000.0001) %MON dynstat_uvel_mean            =  -1.0917946636533E-07
(PID.TID 0000.0001) %MON dynstat_uvel_sd              =   9.8228947880262E-04
(PID.TID 0000.0001) %MON dynstat_uvel_del2            =   1.4405243758028E-06
(PID.TID 0000.0001) %MON dynstat_vvel_max             =   2.5351835916950E-02
(PID.TID 0000.0001) %MON dynstat_vvel_min             =  -1.1004358292830E-02
(PID.TID 0000.0001) %MON dynstat_vvel_mean            =   1.5092115518023E-05
(PID.TID 0000.0001) %MON dynstat_vvel_sd              =   5.6108352371237E-04
(PID.TID 0000.0001) %MON dynstat_vvel_del2            =   1.1391806756318E-06
(PID.TID 0000.0001) %MON dynstat_wvel_max             =   1.3180721313213E-03
(PID.TID 0000.0001) %MON dynstat_wvel_min             =  -1.2694209550954E-03
(PID.TID 0000.0001) %MON dynstat_wvel_mean            =   7.3023494094179E-09
(PID.TID 0000.0001) %MON dynstat_wvel_sd              =   2.1984423630584E-05
(PID.TID 0000.0001) %MON dynstat_wvel_del2            =   9.1137059582837E-08
(PID.TID 0000.0001) %MON dynstat_theta_max            =   1.2000000000000E+00
(PID.TID 0000.0001) %MON dynstat_theta_min            =  -1.0000000000000E+00
(PID.TID 0000.0001) %MON dynstat_theta_mean           =   5.6859412197877E-01
(PID.TID 0000.0001) %MON dynstat_theta_sd             =   8.6830877522476E-01
(PID.TID 0000.0001) %MON dynstat_theta_del2           =   3.6668158947075E-06
(PID.TID 0000.0001) %MON dynstat_salt_max             =   3.4700000000000E+01
(PID.TID 0000.0001) %MON dynstat_salt_min             =   3.4000000000000E+01
(PID.TID 0000.0001) %MON dynstat_salt_mean            =   3.4499051797999E+01
(PID.TID 0000.0001) %MON dynstat_salt_sd              =   2.7626206825202E-01
(PID.TID 0000.0001) %MON dynstat_salt_del2            =   1.4479409047308E-06
(PID.TID 0000.0001) %MON advcfl_uvel_max              =   3.3866635153610E-03
(PID.TID 0000.0001) %MON advcfl_vvel_max              =   2.5351835916950E-03
(PID.TID 0000.0001) %MON advcfl_wvel_max              =   6.5903606566063E-03
(PID.TID 0000.0001) %MON advcfl_W_hf_max              =   6.5903606566063E-03
(PID.TID 0000.0001) %MON pe_b_mean                    =  -8.2945238747011E-01
(PID.TID 0000.0001) %MON ke_max                       =   4.2739832342190E-04
(PID.TID 0000.0001) %MON ke_mean                      =   6.3039489534963E-07
(PID.TID 0000.0001) %MON ke_vol                       =   4.2724728895909E+12
(PID.TID 0000.0001) // =======================================================
(PID.TID 0000.0001) // End MONITOR dynamic field statistics
(PID.TID 0000.0001) // =======================================================
(PID.TID 0000.0001) // =======================================================
(PID.TID 0000.0001) // Begin OBCS MONITOR field statistics
(PID.TID 0000.0001) // =======================================================
(PID.TID 0000.0001) %MON obc_N_vVel_max               =   1.4794183405803E-05
(PID.TID 0000.0001) %MON obc_N_vVel_min               =   1.4794183405803E-05
(PID.TID 0000.0001) %MON obc_N_vVel_mean              =   1.4794183405803E-05
(PID.TID 0000.0001) %MON obc_N_vVel_sd                =  -1.3028094647710E-23
(PID.TID 0000.0001) %MON obc_N_vVel_Int               =   9.7641610478300E+02
(PID.TID 0000.0001) // =======================================================
(PID.TID 0000.0001) // End OBCS MONITOR field statistics
(PID.TID 0000.0001) // =======================================================
 cg2d: Sum(rhs),rhsMax =   4.50602491532710E+00  2.99945824935991E+02
(PID.TID 0000.0001)      cg2d_init_res =   8.23204684304935E-06
(PID.TID 0000.0001)      cg2d_iters(min,last) =      -1      83
(PID.TID 0000.0001)      cg2d_last_res =   9.12699614705370E-12
(PID.TID 0000.0001) // =======================================================
(PID.TID 0000.0001) // Begin MONITOR dynamic field statistics
(PID.TID 0000.0001) // =======================================================
(PID.TID 0000.0001) %MON time_tsnumber                =                  1204
(PID.TID 0000.0001) %MON time_secondsf                =   1.2040000000000E+05
(PID.TID 0000.0001) %MON dynstat_eta_max              =   5.7991947711417E+00
(PID.TID 0000.0001) %MON dynstat_eta_min              =  -1.4185953061059E+01
(PID.TID 0000.0001) %MON dynstat_eta_mean             =  -2.5028951118702E+00
(PID.TID 0000.0001) %MON dynstat_eta_sd               =   4.9495939579613E+00
(PID.TID 0000.0001) %MON dynstat_eta_del2             =   2.0715661400367E-01
(PID.TID 0000.0001) %MON dynstat_uvel_max             =   7.4672071124802E-03
(PID.TID 0000.0001) %MON dynstat_uvel_min             =  -3.3947055625219E-02
(PID.TID 0000.0001) %MON dynstat_uvel_mean            =  -1.1004315953469E-07
(PID.TID 0000.0001) %MON dynstat_uvel_sd              =   9.8457684212842E-04
(PID.TID 0000.0001) %MON dynstat_uvel_del2            =   1.4439974870066E-06
(PID.TID 0000.0001) %MON dynstat_vvel_max             =   2.5401307109468E-02
(PID.TID 0000.0001) %MON dynstat_vvel_min             =  -1.1032865273569E-02
(PID.TID 0000.0001) %MON dynstat_vvel_mean            =   1.5126943281342E-05
(PID.TID 0000.0001) %MON dynstat_vvel_sd              =   5.6216523971175E-04
(PID.TID 0000.0001) %MON dynstat_vvel_del2            =   1.1415974125645E-06
(PID.TID 0000.0001) %MON dynstat_wvel_max             =   1.3209882871350E-03
(PID.TID 0000.0001) %MON dynstat_wvel_min             =  -1.2721810531996E-03
(PID.TID 0000.0001) %MON dynstat_wvel_mean            =   7.3409498455545E-09
(PID.TID 0000.0001) %MON dynstat_wvel_sd              =   2.2053593915890E-05
(PID.TID 0000.0001) %MON dynstat_wvel_del2            =   9.1440497220124E-08
(PID.TID 0000.0001) %MON dynstat_theta_max            =   1.2000000000000E+00
(PID.TID 0000.0001) %MON dynstat_theta_min            =  -1.0000000000000E+00
(PID.TID 0000.0001) %MON dynstat_theta_mean           =   5.6859302718376E-01
(PID.TID 0000.0001) %MON dynstat_theta_sd             =   8.6830818447615E-01
(PID.TID 0000.0001) %MON dynstat_theta_del2           =   3.6739163944892E-06
(PID.TID 0000.0001) %MON dynstat_salt_max             =   3.4700000000000E+01
(PID.TID 0000.0001) %MON dynstat_salt_min             =   3.4000000000000E+01
(PID.TID 0000.0001) %MON dynstat_salt_mean            =   3.4499051359813E+01
(PID.TID 0000.0001) %MON dynstat_salt_sd              =   2.7626184089727E-01
(PID.TID 0000.0001) %MON dynstat_salt_del2            =   1.4508115019813E-06
(PID.TID 0000.0001) %MON advcfl_uvel_max              =   3.3947055625219E-03
(PID.TID 0000.0001) %MON advcfl_vvel_max              =   2.5401307109468E-03
(PID.TID 0000.0001) %MON advcfl_wvel_max              =   6.6049414356750E-03
(PID.TID 0000.0001) %MON advcfl_W_hf_max              =   6.6049414356750E-03
(PID.TID 0000.0001) %MON pe_b_mean                    =  -8.2945407167429E-01
(PID.TID 0000.0001) %MON ke_max                       =   4.2976357019218E-04
(PID.TID 0000.0001) %MON ke_mean                      =   6.3320778652513E-07
(PID.TID 0000.0001) %MON ke_vol                       =   4.2724728463680E+12
(PID.TID 0000.0001) // =======================================================
(PID.TID 0000.0001) // End MONITOR dynamic field statistics
(PID.TID 0000.0001) // =======================================================
(PID.TID 0000.0001) // =======================================================
(PID.TID 0000.0001) // Begin OBCS MONITOR field statistics
(PID.TID 0000.0001) // =======================================================
(PID.TID 0000.0001) %MON obc_N_vVel_max               =   1.4825212729196E-05
(PID.TID 0000.0001) %MON obc_N_vVel_min               =   1.4825212729196E-05
(PID.TID 0000.0001) %MON obc_N_vVel_mean              =   1.4825212729196E-05
(PID.TID 0000.0001) %MON obc_N_vVel_sd                =   4.5955364229048E-12
(PID.TID 0000.0001) %MON obc_N_vVel_Int               =   9.7846404012691E+02
(PID.TID 0000.0001) // =======================================================
(PID.TID 0000.0001) // End OBCS MONITOR field statistics
(PID.TID 0000.0001) // =======================================================
 cg2d: Sum(rhs),rhsMax =   4.50603684137226E+00  2.99945907490841E+02
(PID.TID 0000.0001)      cg2d_init_res =   8.25891705393692E-06
(PID.TID 0000.0001)      cg2d_iters(min,last) =      -1      83
(PID.TID 0000.0001)      cg2d_last_res =   9.18837455536134E-12
(PID.TID 0000.0001) // =======================================================
(PID.TID 0000.0001) // Begin MONITOR dynamic field statistics
(PID.TID 0000.0001) // =======================================================
(PID.TID 0000.0001) %MON time_tsnumber                =                  1205
(PID.TID 0000.0001) %MON time_secondsf                =   1.2050000000000E+05
(PID.TID 0000.0001) %MON dynstat_eta_max              =   5.7991813878909E+00
(PID.TID 0000.0001) %MON dynstat_eta_min              =  -1.4185982880771E+01
(PID.TID 0000.0001) %MON dynstat_eta_mean             =  -2.5029024251344E+00
(PID.TID 0000.0001) %MON dynstat_eta_sd               =   4.9495967924626E+00
(PID.TID 0000.0001) %MON dynstat_eta_del2             =   2.0715665252578E-01
(PID.TID 0000.0001) %MON dynstat_uvel_max             =   7.4843189017102E-03
(PID.TID 0000.0001) %MON dynstat_uvel_min             =  -3.4027602343735E-02
(PID.TID 0000.0001) %MON dynstat_uvel_mean            =  -1.1103426041829E-07
(PID.TID 0000.0001) %MON dynstat_uvel_sd              =   9.8686887612008E-04
(PID.TID 0000.0001) %MON dynstat_uvel_del2            =   1.4474794984137E-06
(PID.TID 0000.0001) %MON dynstat_vvel_max             =   2.5450804310763E-02
(PID.TID 0000.0001) %MON dynstat_vvel_min             =  -1.1061437956167E-02
(PID.TID 0000.0001) %MON dynstat_vvel_mean            =   1.5161212703393E-05
(PID.TID 0000.0001) %MON dynstat_vvel_sd              =   5.6324825711024E-04
(PID.TID 0000.0001) %MON dynstat_vvel_del2            =   1.1440127496011E-06
(PID.TID 0000.0001) %MON dynstat_wvel_max             =   1.3239072416754E-03
(PID.TID 0000.0001) %MON dynstat_wvel_min             =  -1.2749437985005E-03
(PID.TID 0000.0001) %MON dynstat_wvel_mean            =   7.3753030503724E-09
(PID.TID 0000.0001) %MON dynstat_wvel_sd              =   2.2118549271583E-05
(PID.TID 0000.0001) %MON dynstat_wvel_del2            =   9.1730303669888E-08
(PID.TID 0000.0001) %MON dynstat_theta_max            =   1.2000000000000E+00
(PID.TID 0000.0001) %MON dynstat_theta_min            =  -1.0000000000000E+00
(PID.TID 0000.0001) %MON dynstat_theta_mean           =   5.6859193048708E-01
(PID.TID 0000.0001) %MON dynstat_theta_sd             =   8.6830759270372E-01
(PID.TID 0000.0001) %MON dynstat_theta_del2           =   3.6810340266799E-06
(PID.TID 0000.0001) %MON dynstat_salt_max             =   3.4700000000000E+01
(PID.TID 0000.0001) %MON dynstat_salt_min             =   3.4000000000000E+01
(PID.TID 0000.0001) %MON dynstat_salt_mean            =   3.4499050920864E+01
(PID.TID 0000.0001) %MON dynstat_salt_sd              =   2.7626161315211E-01
(PID.TID 0000.0001) %MON dynstat_salt_del2            =   1.4536879471378E-06
(PID.TID 0000.0001) %MON advcfl_uvel_max              =   3.4027602343735E-03
(PID.TID 0000.0001) %MON advcfl_vvel_max              =   2.5450804310763E-03
(PID.TID 0000.0001) %MON advcfl_wvel_max              =   6.6195362083768E-03
(PID.TID 0000.0001) %MON advcfl_W_hf_max              =   6.6195362083768E-03
(PID.TID 0000.0001) %MON pe_b_mean                    =  -8.2945575888394E-01
(PID.TID 0000.0001) %MON ke_max                       =   4.3214030460018E-04
(PID.TID 0000.0001) %MON ke_mean                      =   6.3603221981321E-07
(PID.TID 0000.0001) %MON ke_vol                       =   4.2724728030355E+12
(PID.TID 0000.0001) // =======================================================
(PID.TID 0000.0001) // End MONITOR dynamic field statistics
(PID.TID 0000.0001) // =======================================================
(PID.TID 0000.0001) // =======================================================
(PID.TID 0000.0001) // Begin OBCS MONITOR field statistics
(PID.TID 0000.0001) // =======================================================
(PID.TID 0000.0001) %MON obc_N_vVel_max               =   1.4856062002226E-05
(PID.TID 0000.0001) %MON obc_N_vVel_min               =   1.4856062002225E-05
(PID.TID 0000.0001) %MON obc_N_vVel_mean              =   1.4856062002226E-05
(PID.TID 0000.0001) %MON obc_N_vVel_sd                =  -1.9154401059431E-23
(PID.TID 0000.0001) %MON obc_N_vVel_Int               =   9.8050009214691E+02
(PID.TID 0000.0001) // =======================================================
(PID.TID 0000.0001) // End OBCS MONITOR field statistics
(PID.TID 0000.0001) // =======================================================
 cg2d: Sum(rhs),rhsMax =   4.50604879339577E+00  2.99945990406275E+02
(PID.TID 0000.0001)      cg2d_init_res =   8.28385612914067E-06
(PID.TID 0000.0001)      cg2d_iters(min,last) =      -1      83
(PID.TID 0000.0001)      cg2d_last_res =   9.22132323193630E-12
(PID.TID 0000.0001) // =======================================================
(PID.TID 0000.0001) // Begin MONITOR dynamic field statistics
(PID.TID 0000.0001) // =======================================================
(PID.TID 0000.0001) %MON time_tsnumber                =                  1206
(PID.TID 0000.0001) %MON time_secondsf                =   1.2060000000000E+05
(PID.TID 0000.0001) %MON dynstat_eta_max              =   5.7991679513471E+00
(PID.TID 0000.0001) %MON dynstat_eta_min              =  -1.4186012732407E+01
(PID.TID 0000.0001) %MON dynstat_eta_mean             =  -2.5029097558409E+00
(PID.TID 0000.0001) %MON dynstat_eta_sd               =   4.9495996321630E+00
(PID.TID 0000.0001) %MON dynstat_eta_del2             =   2.0715669111279E-01
(PID.TID 0000.0001) %MON dynstat_uvel_max             =   7.5014611865285E-03
(PID.TID 0000.0001) %MON dynstat_uvel_min             =  -3.4108274974353E-02
(PID.TID 0000.0001) %MON dynstat_uvel_mean            =  -1.1202938417107E-07
(PID.TID 0000.0001) %MON dynstat_uvel_sd              =   9.8916558949644E-04
(PID.TID 0000.0001) %MON dynstat_uvel_del2            =   1.4509703930608E-06
(PID.TID 0000.0001) %MON dynstat_vvel_max             =   2.5500327208060E-02
(PID.TID 0000.0001) %MON dynstat_vvel_min             =  -1.1090076230595E-02
(PID.TID 0000.0001) %MON dynstat_vvel_mean            =   1.5194427468777E-05
(PID.TID 0000.0001) %MON dynstat_vvel_sd              =   5.6433226526649E-04
(PID.TID 0000.0001) %MON dynstat_vvel_del2            =   1.1464241859987E-06
(PID.TID 0000.0001) %MON dynstat_wvel_max             =   1.3268289843384E-03
(PID.TID 0000.0001) %MON dynstat_wvel_min             =  -1.2777092038485E-03
(PID.TID 0000.0001) %MON dynstat_wvel_mean            =   7.4051839320172E-09
(PID.TID 0000.0001) %MON dynstat_wvel_sd              =   2.2177543021963E-05
(PID.TID 0000.0001) %MON dynstat_wvel_del2            =   9.1997554964004E-08
(PID.TID 0000.0001) %MON dynstat_theta_max            =   1.2000000000000E+00
(PID.TID 0000.0001) %MON dynstat_theta_min            =  -1.0000000000000E+00
(PID.TID 0000.0001) %MON dynstat_theta_mean           =   5.6859083188464E-01
(PID.TID 0000.0001) %MON dynstat_theta_sd             =   8.6830699990994E-01
(PID.TID 0000.0001) %MON dynstat_theta_del2           =   3.6881724441564E-06
(PID.TID 0000.0001) %MON dynstat_salt_max             =   3.4700000000000E+01
(PID.TID 0000.0001) %MON dynstat_salt_min             =   3.4000000000000E+01
(PID.TID 0000.0001) %MON dynstat_salt_mean            =   3.4499050481151E+01
(PID.TID 0000.0001) %MON dynstat_salt_sd              =   2.7626138501744E-01
(PID.TID 0000.0001) %MON dynstat_salt_del2            =   1.4565712397369E-06
(PID.TID 0000.0001) %MON advcfl_uvel_max              =   3.4108274974353E-03
(PID.TID 0000.0001) %MON advcfl_vvel_max              =   2.5500327208060E-03
(PID.TID 0000.0001) %MON advcfl_wvel_max              =   6.6341449216918E-03
(PID.TID 0000.0001) %MON advcfl_W_hf_max              =   6.6341449216918E-03
(PID.TID 0000.0001) %MON pe_b_mean                    =  -8.2945744879161E-01
(PID.TID 0000.0001) %MON ke_max                       =   4.3452855011916E-04
(PID.TID 0000.0001) %MON ke_mean                      =   6.3886805653165E-07
(PID.TID 0000.0001) %MON ke_vol                       =   4.2724727595947E+12
(PID.TID 0000.0001) // =======================================================
(PID.TID 0000.0001) // End MONITOR dynamic field statistics
(PID.TID 0000.0001) // =======================================================
(PID.TID 0000.0001) // =======================================================
(PID.TID 0000.0001) // Begin OBCS MONITOR field statistics
(PID.TID 0000.0001) // =======================================================
(PID.TID 0000.0001) %MON obc_N_vVel_max               =   1.4886231540367E-05
(PID.TID 0000.0001) %MON obc_N_vVel_min               =   1.4886231540367E-05
(PID.TID 0000.0001) %MON obc_N_vVel_mean              =   1.4886231540367E-05
(PID.TID 0000.0001) %MON obc_N_vVel_sd                =  -1.3803576471979E-23
(PID.TID 0000.0001) %MON obc_N_vVel_Int               =   9.8249128166425E+02
(PID.TID 0000.0001) // =======================================================
(PID.TID 0000.0001) // End OBCS MONITOR field statistics
(PID.TID 0000.0001) // =======================================================
 cg2d: Sum(rhs),rhsMax =   4.50606077010284E+00  2.99946073614743E+02
(PID.TID 0000.0001)      cg2d_init_res =   8.30657763819219E-06
(PID.TID 0000.0001)      cg2d_iters(min,last) =      -1      83
(PID.TID 0000.0001)      cg2d_last_res =   9.22921488421586E-12
(PID.TID 0000.0001) // =======================================================
(PID.TID 0000.0001) // Begin MONITOR dynamic field statistics
(PID.TID 0000.0001) // =======================================================
(PID.TID 0000.0001) %MON time_tsnumber                =                  1207
(PID.TID 0000.0001) %MON time_secondsf                =   1.2070000000000E+05
(PID.TID 0000.0001) %MON dynstat_eta_max              =   5.7991544641144E+00
(PID.TID 0000.0001) %MON dynstat_eta_min              =  -1.4186042614003E+01
(PID.TID 0000.0001) %MON dynstat_eta_mean             =  -2.5029171027070E+00
(PID.TID 0000.0001) %MON dynstat_eta_sd               =   4.9496024763090E+00
(PID.TID 0000.0001) %MON dynstat_eta_del2             =   2.0715672976380E-01
(PID.TID 0000.0001) %MON dynstat_uvel_max             =   7.5186341313618E-03
(PID.TID 0000.0001) %MON dynstat_uvel_min             =  -3.4189073256602E-02
(PID.TID 0000.0001) %MON dynstat_uvel_mean            =  -1.1293191127132E-07
(PID.TID 0000.0001) %MON dynstat_uvel_sd              =   9.9146699179861E-04
(PID.TID 0000.0001) %MON dynstat_uvel_del2            =   1.4544701520735E-06
(PID.TID 0000.0001) %MON dynstat_vvel_max             =   2.5549875434388E-02
(PID.TID 0000.0001) %MON dynstat_vvel_min             =  -1.1118780075385E-02
(PID.TID 0000.0001) %MON dynstat_vvel_mean            =   1.5226124853503E-05
(PID.TID 0000.0001) %MON dynstat_vvel_sd              =   5.6541702111781E-04
(PID.TID 0000.0001) %MON dynstat_vvel_del2            =   1.1488297620767E-06
(PID.TID 0000.0001) %MON dynstat_wvel_max             =   1.3297535063795E-03
(PID.TID 0000.0001) %MON dynstat_wvel_min             =  -1.2804772750981E-03
(PID.TID 0000.0001) %MON dynstat_wvel_mean            =   7.4302577329540E-09
(PID.TID 0000.0001) %MON dynstat_wvel_sd              =   2.2229230363267E-05
(PID.TID 0000.0001) %MON dynstat_wvel_del2            =   9.2234783591174E-08
(PID.TID 0000.0001) %MON dynstat_theta_max            =   1.2000000000000E+00
(PID.TID 0000.0001) %MON dynstat_theta_min            =  -1.0000000000000E+00
(PID.TID 0000.0001) %MON dynstat_theta_mean           =   5.6858973137210E-01
(PID.TID 0000.0001) %MON dynstat_theta_sd             =   8.6830640609725E-01
(PID.TID 0000.0001) %MON dynstat_theta_del2           =   3.6953347653737E-06
(PID.TID 0000.0001) %MON dynstat_salt_max             =   3.4700000000000E+01
(PID.TID 0000.0001) %MON dynstat_salt_min             =   3.4000000000000E+01
(PID.TID 0000.0001) %MON dynstat_salt_mean            =   3.4499050040672E+01
(PID.TID 0000.0001) %MON dynstat_salt_sd              =   2.7626115649399E-01
(PID.TID 0000.0001) %MON dynstat_salt_del2            =   1.4594622456202E-06
(PID.TID 0000.0001) %MON advcfl_uvel_max              =   3.4189073256602E-03
(PID.TID 0000.0001) %MON advcfl_vvel_max              =   2.5549875434388E-03
(PID.TID 0000.0001) %MON advcfl_wvel_max              =   6.6487675318977E-03
(PID.TID 0000.0001) %MON advcfl_W_hf_max              =   6.6487675318977E-03
(PID.TID 0000.0001) %MON pe_b_mean                    =  -8.2945914096799E-01
(PID.TID 0000.0001) %MON ke_max                       =   4.3692833385389E-04
(PID.TID 0000.0001) %MON ke_mean                      =   6.4171519624916E-07
(PID.TID 0000.0001) %MON ke_vol                       =   4.2724727160503E+12
(PID.TID 0000.0001) // =======================================================
(PID.TID 0000.0001) // End MONITOR dynamic field statistics
(PID.TID 0000.0001) // =======================================================
(PID.TID 0000.0001) // =======================================================
(PID.TID 0000.0001) // Begin OBCS MONITOR field statistics
(PID.TID 0000.0001) // =======================================================
(PID.TID 0000.0001) %MON obc_N_vVel_max               =   1.4915269945386E-05
(PID.TID 0000.0001) %MON obc_N_vVel_min               =   1.4915269945386E-05
(PID.TID 0000.0001) %MON obc_N_vVel_mean              =   1.4915269945386E-05
(PID.TID 0000.0001) %MON obc_N_vVel_sd                =   3.7118360790633E-12
(PID.TID 0000.0001) %MON obc_N_vVel_Int               =   9.8440781639546E+02
(PID.TID 0000.0001) // =======================================================
(PID.TID 0000.0001) // End OBCS MONITOR field statistics
(PID.TID 0000.0001) // =======================================================
 cg2d: Sum(rhs),rhsMax =   4.50607276946986E+00  2.99946157043449E+02
(PID.TID 0000.0001)      cg2d_init_res =   8.32684131951246E-06
(PID.TID 0000.0001)      cg2d_iters(min,last) =      -1      83
(PID.TID 0000.0001)      cg2d_last_res =   9.22153025962136E-12
(PID.TID 0000.0001) // =======================================================
(PID.TID 0000.0001) // Begin MONITOR dynamic field statistics
(PID.TID 0000.0001) // =======================================================
(PID.TID 0000.0001) %MON time_tsnumber                =                  1208
(PID.TID 0000.0001) %MON time_secondsf                =   1.2080000000000E+05
(PID.TID 0000.0001) %MON dynstat_eta_max              =   5.7991409311190E+00
(PID.TID 0000.0001) %MON dynstat_eta_min              =  -1.4186072523309E+01
(PID.TID 0000.0001) %MON dynstat_eta_mean             =  -2.5029244640011E+00
(PID.TID 0000.0001) %MON dynstat_eta_sd               =   4.9496053240462E+00
(PID.TID 0000.0001) %MON dynstat_eta_del2             =   2.0715676847785E-01
(PID.TID 0000.0001) %MON dynstat_uvel_max             =   7.5358378707087E-03
(PID.TID 0000.0001) %MON dynstat_uvel_min             =  -3.4269997055432E-02
(PID.TID 0000.0001) %MON dynstat_uvel_mean            =  -1.1367062319893E-07
(PID.TID 0000.0001) %MON dynstat_uvel_sd              =   9.9377309327266E-04
(PID.TID 0000.0001) %MON dynstat_uvel_del2            =   1.4579787548561E-06
(PID.TID 0000.0001) %MON dynstat_vvel_max             =   2.5599448580429E-02
(PID.TID 0000.0001) %MON dynstat_vvel_min             =  -1.1147549576942E-02
(PID.TID 0000.0001) %MON dynstat_vvel_mean            =   1.5255867832209E-05
(PID.TID 0000.0001) %MON dynstat_vvel_sd              =   5.6650236367763E-04
(PID.TID 0000.0001) %MON dynstat_vvel_del2            =   1.1512281602072E-06
(PID.TID 0000.0001) %MON dynstat_wvel_max             =   1.3326808004089E-03
(PID.TID 0000.0001) %MON dynstat_wvel_min             =  -1.2832480089570E-03
(PID.TID 0000.0001) %MON dynstat_wvel_mean            =   7.4500907512098E-09
(PID.TID 0000.0001) %MON dynstat_wvel_sd              =   2.2272741661699E-05
(PID.TID 0000.0001) %MON dynstat_wvel_del2            =   9.2436396499438E-08
(PID.TID 0000.0001) %MON dynstat_theta_max            =   1.2000000000000E+00
(PID.TID 0000.0001) %MON dynstat_theta_min            =  -1.0000000000000E+00
(PID.TID 0000.0001) %MON dynstat_theta_mean           =   5.6858862894483E-01
(PID.TID 0000.0001) %MON dynstat_theta_sd             =   8.6830581126843E-01
(PID.TID 0000.0001) %MON dynstat_theta_del2           =   3.7025234170851E-06
(PID.TID 0000.0001) %MON dynstat_salt_max             =   3.4700000000000E+01
(PID.TID 0000.0001) %MON dynstat_salt_min             =   3.4000000000000E+01
(PID.TID 0000.0001) %MON dynstat_salt_mean            =   3.4499049599424E+01
(PID.TID 0000.0001) %MON dynstat_salt_sd              =   2.7626092758251E-01
(PID.TID 0000.0001) %MON dynstat_salt_del2            =   1.4623616365380E-06
(PID.TID 0000.0001) %MON advcfl_uvel_max              =   3.4269997055432E-03
(PID.TID 0000.0001) %MON advcfl_vvel_max              =   2.5599448580429E-03
(PID.TID 0000.0001) %MON advcfl_wvel_max              =   6.6634040020445E-03
(PID.TID 0000.0001) %MON advcfl_W_hf_max              =   6.6634040020445E-03
(PID.TID 0000.0001) %MON pe_b_mean                    =  -8.2946083487057E-01
(PID.TID 0000.0001) %MON ke_max                       =   4.3933968893221E-04
(PID.TID 0000.0001) %MON ke_mean                      =   6.4457358514814E-07
(PID.TID 0000.0001) %MON ke_vol                       =   4.2724726724099E+12
(PID.TID 0000.0001) // =======================================================
(PID.TID 0000.0001) // End MONITOR dynamic field statistics
(PID.TID 0000.0001) // =======================================================
(PID.TID 0000.0001) // =======================================================
(PID.TID 0000.0001) // Begin OBCS MONITOR field statistics
(PID.TID 0000.0001) // =======================================================
(PID.TID 0000.0001) %MON obc_N_vVel_max               =   1.4942772800492E-05
(PID.TID 0000.0001) %MON obc_N_vVel_min               =   1.4942772800492E-05
(PID.TID 0000.0001) %MON obc_N_vVel_mean              =   1.4942772800492E-05
(PID.TID 0000.0001) %MON obc_N_vVel_sd                =  -1.3415835559844E-23
(PID.TID 0000.0001) %MON obc_N_vVel_Int               =   9.8622300483248E+02
(PID.TID 0000.0001) // =======================================================
(PID.TID 0000.0001) // End OBCS MONITOR field statistics
(PID.TID 0000.0001) // =======================================================
 cg2d: Sum(rhs),rhsMax =   4.50608478880673E+00  2.99946240615146E+02
(PID.TID 0000.0001)      cg2d_init_res =   8.34446020656445E-06
(PID.TID 0000.0001)      cg2d_iters(min,last) =      -1      83
(PID.TID 0000.0001)      cg2d_last_res =   9.20897182857103E-12
(PID.TID 0000.0001) // =======================================================
(PID.TID 0000.0001) // Begin MONITOR dynamic field statistics
(PID.TID 0000.0001) // =======================================================
(PID.TID 0000.0001) %MON time_tsnumber                =                  1209
(PID.TID 0000.0001) %MON time_secondsf                =   1.2090000000000E+05
(PID.TID 0000.0001) %MON dynstat_eta_max              =   5.7991273592170E+00
(PID.TID 0000.0001) %MON dynstat_eta_min              =  -1.4186102457658E+01
(PID.TID 0000.0001) %MON dynstat_eta_mean             =  -2.5029318375846E+00
(PID.TID 0000.0001) %MON dynstat_eta_sd               =   4.9496081744115E+00
(PID.TID 0000.0001) %MON dynstat_eta_del2             =   2.0715680725396E-01
(PID.TID 0000.0001) %MON dynstat_uvel_max             =   7.5530725037645E-03
(PID.TID 0000.0001) %MON dynstat_uvel_min             =  -3.4351046367354E-02
(PID.TID 0000.0001) %MON dynstat_uvel_mean            =  -1.1419561447269E-07
(PID.TID 0000.0001) %MON dynstat_uvel_sd              =   9.9608390461075E-04
(PID.TID 0000.0001) %MON dynstat_uvel_del2            =   1.4614961795268E-06
(PID.TID 0000.0001) %MON dynstat_vvel_max             =   2.5649046217219E-02
(PID.TID 0000.0001) %MON dynstat_vvel_min             =  -1.1176384921752E-02
(PID.TID 0000.0001) %MON dynstat_vvel_mean            =   1.5283242465374E-05
(PID.TID 0000.0001) %MON dynstat_vvel_sd              =   5.6758822329343E-04
(PID.TID 0000.0001) %MON dynstat_vvel_del2            =   1.1536187678938E-06
(PID.TID 0000.0001) %MON dynstat_wvel_max             =   1.3356108595624E-03
(PID.TID 0000.0001) %MON dynstat_wvel_min             =  -1.2860213930532E-03
(PID.TID 0000.0001) %MON dynstat_wvel_mean            =   7.4642350585305E-09
(PID.TID 0000.0001) %MON dynstat_wvel_sd              =   2.2307727157116E-05
(PID.TID 0000.0001) %MON dynstat_wvel_del2            =   9.2598992155478E-08
(PID.TID 0000.0001) %MON dynstat_theta_max            =   1.2000000000000E+00
(PID.TID 0000.0001) %MON dynstat_theta_min            =  -1.0000000000000E+00
(PID.TID 0000.0001) %MON dynstat_theta_mean           =   5.6858752459805E-01
(PID.TID 0000.0001) %MON dynstat_theta_sd             =   8.6830521542786E-01
(PID.TID 0000.0001) %MON dynstat_theta_del2           =   3.7097400434791E-06
(PID.TID 0000.0001) %MON dynstat_salt_max             =   3.4700000000000E+01
(PID.TID 0000.0001) %MON dynstat_salt_min             =   3.4000000000000E+01
(PID.TID 0000.0001) %MON dynstat_salt_mean            =   3.4499049157407E+01
(PID.TID 0000.0001) %MON dynstat_salt_sd              =   2.7626069828459E-01
(PID.TID 0000.0001) %MON dynstat_salt_del2            =   1.4652699253460E-06
(PID.TID 0000.0001) %MON advcfl_uvel_max              =   3.4351046367354E-03
(PID.TID 0000.0001) %MON advcfl_vvel_max              =   2.5649046217219E-03
(PID.TID 0000.0001) %MON advcfl_wvel_max              =   6.6780542978120E-03
(PID.TID 0000.0001) %MON advcfl_W_hf_max              =   6.6780542978120E-03
(PID.TID 0000.0001) %MON pe_b_mean                    =  -8.2946252985253E-01
(PID.TID 0000.0001) %MON ke_max                       =   4.4176265479519E-04
(PID.TID 0000.0001) %MON ke_mean                      =   6.4744322145135E-07
(PID.TID 0000.0001) %MON ke_vol                       =   4.2724726286838E+12
(PID.TID 0000.0001) // =======================================================
(PID.TID 0000.0001) // End MONITOR dynamic field statistics
(PID.TID 0000.0001) // =======================================================
(PID.TID 0000.0001) // =======================================================
(PID.TID 0000.0001) // Begin OBCS MONITOR field statistics
(PID.TID 0000.0001) // =======================================================
(PID.TID 0000.0001) %MON obc_N_vVel_max               =   1.4968372875637E-05
(PID.TID 0000.0001) %MON obc_N_vVel_min               =   1.4968372875637E-05
(PID.TID 0000.0001) %MON obc_N_vVel_mean              =   1.4968372875637E-05
(PID.TID 0000.0001) %MON obc_N_vVel_sd                =   2.1868099863322E-12
(PID.TID 0000.0001) %MON obc_N_vVel_Int               =   9.8791260979206E+02
(PID.TID 0000.0001) // =======================================================
(PID.TID 0000.0001) // End OBCS MONITOR field statistics
(PID.TID 0000.0001) // =======================================================
 cg2d: Sum(rhs),rhsMax =   4.50609682479595E+00  2.99946324249258E+02
(PID.TID 0000.0001)      cg2d_init_res =   8.35930503070867E-06
(PID.TID 0000.0001)      cg2d_iters(min,last) =      -1      83
(PID.TID 0000.0001)      cg2d_last_res =   9.19966769531848E-12
(PID.TID 0000.0001) // =======================================================
(PID.TID 0000.0001) // Begin MONITOR dynamic field statistics
(PID.TID 0000.0001) // =======================================================
(PID.TID 0000.0001) %MON time_tsnumber                =                  1210
(PID.TID 0000.0001) %MON time_secondsf                =   1.2100000000000E+05
(PID.TID 0000.0001) %MON dynstat_eta_max              =   5.7991137566639E+00
(PID.TID 0000.0001) %MON dynstat_eta_min              =  -1.4186132413864E+01
(PID.TID 0000.0001) %MON dynstat_eta_mean             =  -2.5029392209422E+00
(PID.TID 0000.0001) %MON dynstat_eta_sd               =   4.9496110263300E+00
(PID.TID 0000.0001) %MON dynstat_eta_del2             =   2.0715684609097E-01
(PID.TID 0000.0001) %MON dynstat_uvel_max             =   7.5703380997432E-03
(PID.TID 0000.0001) %MON dynstat_uvel_min             =  -3.4432221292223E-02
(PID.TID 0000.0001) %MON dynstat_uvel_mean            =  -1.1447490991717E-07
(PID.TID 0000.0001) %MON dynstat_uvel_sd              =   9.9839943664126E-04
(PID.TID 0000.0001) %MON dynstat_uvel_del2            =   1.4650224031849E-06
(PID.TID 0000.0001) %MON dynstat_vvel_max             =   2.5698667923087E-02
(PID.TID 0000.0001) %MON dynstat_vvel_min             =  -1.1205286367026E-02
(PID.TID 0000.0001) %MON dynstat_vvel_mean            =   1.5307860736481E-05
(PID.TID 0000.0001) %MON dynstat_vvel_sd              =   5.6867462506048E-04
(PID.TID 0000.0001) %MON dynstat_vvel_del2            =   1.1560016987357E-06
(PID.TID 0000.0001) %MON dynstat_wvel_max             =   1.3385436765915E-03
(PID.TID 0000.0001) %MON dynstat_wvel_min             =  -1.2887974084757E-03
(PID.TID 0000.0001) %MON dynstat_wvel_mean            =   7.4723191723991E-09
(PID.TID 0000.0001) %MON dynstat_wvel_sd              =   2.2334371258328E-05
(PID.TID 0000.0001) %MON dynstat_wvel_del2            =   9.2721560230530E-08
(PID.TID 0000.0001) %MON dynstat_theta_max            =   1.2000000000000E+00
(PID.TID 0000.0001) %MON dynstat_theta_min            =  -1.0000000000000E+00
(PID.TID 0000.0001) %MON dynstat_theta_mean           =   5.6858641832678E-01
(PID.TID 0000.0001) %MON dynstat_theta_sd             =   8.6830461858017E-01
(PID.TID 0000.0001) %MON dynstat_theta_del2           =   3.7169849983929E-06
(PID.TID 0000.0001) %MON dynstat_salt_max             =   3.4700000000000E+01
(PID.TID 0000.0001) %MON dynstat_salt_min             =   3.4000000000000E+01
(PID.TID 0000.0001) %MON dynstat_salt_mean            =   3.4499048714619E+01
(PID.TID 0000.0001) %MON dynstat_salt_sd              =   2.7626046860099E-01
(PID.TID 0000.0001) %MON dynstat_salt_del2            =   1.4681856801926E-06
(PID.TID 0000.0001) %MON advcfl_uvel_max              =   3.4432221292223E-03
(PID.TID 0000.0001) %MON advcfl_vvel_max              =   2.5698667923087E-03
(PID.TID 0000.0001) %MON advcfl_wvel_max              =   6.6927183829575E-03
(PID.TID 0000.0001) %MON advcfl_W_hf_max              =   6.6927183829575E-03
(PID.TID 0000.0001) %MON pe_b_mean                    =  -8.2946422517186E-01
(PID.TID 0000.0001) %MON ke_max                       =   4.4419727589322E-04
(PID.TID 0000.0001) %MON ke_mean                      =   6.5032415761601E-07
(PID.TID 0000.0001) %MON ke_vol                       =   4.2724725848847E+12
(PID.TID 0000.0001) // =======================================================
(PID.TID 0000.0001) // End MONITOR dynamic field statistics
(PID.TID 0000.0001) // =======================================================
(PID.TID 0000.0001) // =======================================================
(PID.TID 0000.0001) // Begin OBCS MONITOR field statistics
(PID.TID 0000.0001) // =======================================================
(PID.TID 0000.0001) %MON obc_N_vVel_max               =   1.4991731365611E-05
(PID.TID 0000.0001) %MON obc_N_vVel_min               =   1.4991731365611E-05
(PID.TID 0000.0001) %MON obc_N_vVel_mean              =   1.4991731365611E-05
(PID.TID 0000.0001) %MON obc_N_vVel_sd                =  -1.7500039834325E-23
(PID.TID 0000.0001) %MON obc_N_vVel_Int               =   9.8945427013034E+02
(PID.TID 0000.0001) // =======================================================
(PID.TID 0000.0001) // End OBCS MONITOR field statistics
(PID.TID 0000.0001) // =======================================================
 cg2d: Sum(rhs),rhsMax =   4.50610887352575E+00  2.99946407863025E+02
(PID.TID 0000.0001)      cg2d_init_res =   8.37105474668155E-06
(PID.TID 0000.0001)      cg2d_iters(min,last) =      -1      83
(PID.TID 0000.0001)      cg2d_last_res =   9.19656785985792E-12
(PID.TID 0000.0001) // =======================================================
(PID.TID 0000.0001) // Begin MONITOR dynamic field statistics
(PID.TID 0000.0001) // =======================================================
(PID.TID 0000.0001) %MON time_tsnumber                =                  1211
(PID.TID 0000.0001) %MON time_secondsf                =   1.2110000000000E+05
(PID.TID 0000.0001) %MON dynstat_eta_max              =   5.7991001326881E+00
(PID.TID 0000.0001) %MON dynstat_eta_min              =  -1.4186162388257E+01
(PID.TID 0000.0001) %MON dynstat_eta_mean             =  -2.5029466112106E+00
(PID.TID 0000.0001) %MON dynstat_eta_sd               =   4.9496138786153E+00
(PID.TID 0000.0001) %MON dynstat_eta_del2             =   2.0715688498643E-01
(PID.TID 0000.0001) %MON dynstat_uvel_max             =   7.5876347088091E-03
(PID.TID 0000.0001) %MON dynstat_uvel_min             =  -3.4513521987838E-02
(PID.TID 0000.0001) %MON dynstat_uvel_mean            =  -1.1449352872793E-07
(PID.TID 0000.0001) %MON dynstat_uvel_sd              =   1.0007197005557E-03
(PID.TID 0000.0001) %MON dynstat_uvel_del2            =   1.4685573647216E-06
(PID.TID 0000.0001) %MON dynstat_vvel_max             =   2.5748313309146E-02
(PID.TID 0000.0001) %MON dynstat_vvel_min             =  -1.1234254200856E-02
(PID.TID 0000.0001) %MON dynstat_vvel_mean            =   1.5329367342555E-05
(PID.TID 0000.0001) %MON dynstat_vvel_sd              =   5.6976168722074E-04
(PID.TID 0000.0001) %MON dynstat_vvel_del2            =   1.1583777891422E-06
(PID.TID 0000.0001) %MON dynstat_wvel_max             =   1.3414792430810E-03
(PID.TID 0000.0001) %MON dynstat_wvel_min             =  -1.2915760331898E-03
(PID.TID 0000.0001) %MON dynstat_wvel_mean            =   7.4741057150781E-09
(PID.TID 0000.0001) %MON dynstat_wvel_sd              =   2.2353376228500E-05
(PID.TID 0000.0001) %MON dynstat_wvel_del2            =   9.2805558439334E-08
(PID.TID 0000.0001) %MON dynstat_theta_max            =   1.2000000000000E+00
(PID.TID 0000.0001) %MON dynstat_theta_min            =  -1.0000000000000E+00
(PID.TID 0000.0001) %MON dynstat_theta_mean           =   5.6858531012597E-01
(PID.TID 0000.0001) %MON dynstat_theta_sd             =   8.6830402072812E-01
(PID.TID 0000.0001) %MON dynstat_theta_del2           =   3.7242512049106E-06
(PID.TID 0000.0001) %MON dynstat_salt_max             =   3.4700000000000E+01
(PID.TID 0000.0001) %MON dynstat_salt_min             =   3.4000000000000E+01
(PID.TID 0000.0001) %MON dynstat_salt_mean            =   3.4499048271057E+01
(PID.TID 0000.0001) %MON dynstat_salt_sd              =   2.7626023853320E-01
(PID.TID 0000.0001) %MON dynstat_salt_del2            =   1.4711091908576E-06
(PID.TID 0000.0001) %MON advcfl_uvel_max              =   3.4513521987838E-03
(PID.TID 0000.0001) %MON advcfl_vvel_max              =   2.5748313309146E-03
(PID.TID 0000.0001) %MON advcfl_wvel_max              =   6.7073962154050E-03
(PID.TID 0000.0001) %MON advcfl_W_hf_max              =   6.7073962154050E-03
(PID.TID 0000.0001) %MON pe_b_mean                    =  -8.2946592000153E-01
(PID.TID 0000.0001) %MON ke_max                       =   4.4664359932016E-04
(PID.TID 0000.0001) %MON ke_mean                      =   6.5321650027943E-07
(PID.TID 0000.0001) %MON ke_vol                       =   4.2724725410276E+12
(PID.TID 0000.0001) // =======================================================
(PID.TID 0000.0001) // End MONITOR dynamic field statistics
(PID.TID 0000.0001) // =======================================================
(PID.TID 0000.0001) // =======================================================
(PID.TID 0000.0001) // Begin OBCS MONITOR field statistics
(PID.TID 0000.0001) // =======================================================
(PID.TID 0000.0001) %MON obc_N_vVel_max               =   1.5012534598836E-05
(PID.TID 0000.0001) %MON obc_N_vVel_min               =   1.5012534598836E-05
(PID.TID 0000.0001) %MON obc_N_vVel_mean              =   1.5012534598836E-05
(PID.TID 0000.0001) %MON obc_N_vVel_sd                =   3.6165997063533E-12
(PID.TID 0000.0001) %MON obc_N_vVel_Int               =   9.9082728352317E+02
(PID.TID 0000.0001) // =======================================================
(PID.TID 0000.0001) // End OBCS MONITOR field statistics
(PID.TID 0000.0001) // =======================================================
 cg2d: Sum(rhs),rhsMax =   4.50612093052524E+00  2.99946491372859E+02
(PID.TID 0000.0001)      cg2d_init_res =   8.38012281358857E-06
(PID.TID 0000.0001)      cg2d_iters(min,last) =      -1      83
(PID.TID 0000.0001)      cg2d_last_res =   9.19935158148453E-12
(PID.TID 0000.0001) // =======================================================
(PID.TID 0000.0001) // Begin MONITOR dynamic field statistics
(PID.TID 0000.0001) // =======================================================
(PID.TID 0000.0001) %MON time_tsnumber                =                  1212
(PID.TID 0000.0001) %MON time_secondsf                =   1.2120000000000E+05
(PID.TID 0000.0001) %MON dynstat_eta_max              =   5.7990864969575E+00
(PID.TID 0000.0001) %MON dynstat_eta_min              =  -1.4186192376754E+01
(PID.TID 0000.0001) %MON dynstat_eta_mean             =  -2.5029540052090E+00
(PID.TID 0000.0001) %MON dynstat_eta_sd               =   4.9496167300173E+00
(PID.TID 0000.0001) %MON dynstat_eta_del2             =   2.0715692394005E-01
(PID.TID 0000.0001) %MON dynstat_uvel_max             =   7.6049623714312E-03
(PID.TID 0000.0001) %MON dynstat_uvel_min             =  -3.4594948633038E-02
(PID.TID 0000.0001) %MON dynstat_uvel_mean            =  -1.1425456349998E-07
(PID.TID 0000.0001) %MON dynstat_uvel_sd              =   1.0030447070665E-03
(PID.TID 0000.0001) %MON dynstat_uvel_del2            =   1.4721010263365E-06
(PID.TID 0000.0001) %MON dynstat_vvel_max             =   2.5797982037247E-02
(PID.TID 0000.0001) %MON dynstat_vvel_min             =  -1.1263288706967E-02
(PID.TID 0000.0001) %MON dynstat_vvel_mean            =   1.5347448078366E-05
(PID.TID 0000.0001) %MON dynstat_vvel_sd              =   5.7084961073134E-04
(PID.TID 0000.0001) %MON dynstat_vvel_del2            =   1.1607485043472E-06
(PID.TID 0000.0001) %MON dynstat_wvel_max             =   1.3444175490163E-03
(PID.TID 0000.0001) %MON dynstat_wvel_min             =  -1.2943572449943E-03
(PID.TID 0000.0001) %MON dynstat_wvel_mean            =   7.4695026517612E-09
(PID.TID 0000.0001) %MON dynstat_wvel_sd              =   2.2365914990908E-05
(PID.TID 0000.0001) %MON dynstat_wvel_del2            =   9.2854830158079E-08
(PID.TID 0000.0001) %MON dynstat_theta_max            =   1.2000000000000E+00
(PID.TID 0000.0001) %MON dynstat_theta_min            =  -1.0000000000000E+00
(PID.TID 0000.0001) %MON dynstat_theta_mean           =   5.6858419999054E-01
(PID.TID 0000.0001) %MON dynstat_theta_sd             =   8.6830342187485E-01
(PID.TID 0000.0001) %MON dynstat_theta_del2           =   3.7315454324861E-06
(PID.TID 0000.0001) %MON dynstat_salt_max             =   3.4700000000000E+01
(PID.TID 0000.0001) %MON dynstat_salt_min             =   3.4000000000000E+01
(PID.TID 0000.0001) %MON dynstat_salt_mean            =   3.4499047826720E+01
(PID.TID 0000.0001) %MON dynstat_salt_sd              =   2.7626000808215E-01
(PID.TID 0000.0001) %MON dynstat_salt_del2            =   1.4740418319192E-06
(PID.TID 0000.0001) %MON advcfl_uvel_max              =   3.4594948633038E-03
(PID.TID 0000.0001) %MON advcfl_vvel_max              =   2.5797982037247E-03
(PID.TID 0000.0001) %MON advcfl_wvel_max              =   6.7220877450815E-03
(PID.TID 0000.0001) %MON advcfl_W_hf_max              =   6.7220877450815E-03
(PID.TID 0000.0001) %MON pe_b_mean                    =  -8.2946761344072E-01
(PID.TID 0000.0001) %MON ke_max                       =   4.4910167345384E-04
(PID.TID 0000.0001) %MON ke_mean                      =   6.5612040413079E-07
(PID.TID 0000.0001) %MON ke_vol                       =   4.2724724971294E+12
(PID.TID 0000.0001) // =======================================================
(PID.TID 0000.0001) // End MONITOR dynamic field statistics
(PID.TID 0000.0001) // =======================================================
(PID.TID 0000.0001) // =======================================================
(PID.TID 0000.0001) // Begin OBCS MONITOR field statistics
(PID.TID 0000.0001) // =======================================================
(PID.TID 0000.0001) %MON obc_N_vVel_max               =   1.5030496165002E-05
(PID.TID 0000.0001) %MON obc_N_vVel_min               =   1.5030496165001E-05
(PID.TID 0000.0001) %MON obc_N_vVel_mean              =   1.5030496165002E-05
(PID.TID 0000.0001) %MON obc_N_vVel_sd                =  -2.0938009255249E-23
(PID.TID 0000.0001) %MON obc_N_vVel_Int               =   9.9201274689010E+02
(PID.TID 0000.0001) // =======================================================
(PID.TID 0000.0001) // End OBCS MONITOR field statistics
(PID.TID 0000.0001) // =======================================================
 cg2d: Sum(rhs),rhsMax =   4.50613299080940E+00  2.99946574695618E+02
(PID.TID 0000.0001)      cg2d_init_res =   8.38649760968586E-06
(PID.TID 0000.0001)      cg2d_iters(min,last) =      -1      83
(PID.TID 0000.0001)      cg2d_last_res =   9.20398805166172E-12
(PID.TID 0000.0001) // =======================================================
(PID.TID 0000.0001) // Begin MONITOR dynamic field statistics
(PID.TID 0000.0001) // =======================================================
(PID.TID 0000.0001) %MON time_tsnumber                =                  1213
(PID.TID 0000.0001) %MON time_secondsf                =   1.2130000000000E+05
(PID.TID 0000.0001) %MON dynstat_eta_max              =   5.7990728591483E+00
(PID.TID 0000.0001) %MON dynstat_eta_min              =  -1.4186222374986E+01
(PID.TID 0000.0001) %MON dynstat_eta_mean             =  -2.5029613994745E+00
(PID.TID 0000.0001) %MON dynstat_eta_sd               =   4.9496195792192E+00
(PID.TID 0000.0001) %MON dynstat_eta_del2             =   2.0715696295122E-01
(PID.TID 0000.0001) %MON dynstat_uvel_max             =   7.6223211234456E-03
(PID.TID 0000.0001) %MON dynstat_uvel_min             =  -3.4676501400593E-02
(PID.TID 0000.0001) %MON dynstat_uvel_mean            =  -1.1378100771004E-07
(PID.TID 0000.0001) %MON dynstat_uvel_sd              =   1.0053744665299E-03
(PID.TID 0000.0001) %MON dynstat_uvel_del2            =   1.4756533663380E-06
(PID.TID 0000.0001) %MON dynstat_vvel_max             =   2.5847673827481E-02
(PID.TID 0000.0001) %MON dynstat_vvel_min             =  -1.1292390139893E-02
(PID.TID 0000.0001) %MON dynstat_vvel_mean            =   1.5361838105967E-05
(PID.TID 0000.0001) %MON dynstat_vvel_sd              =   5.7193866557819E-04
(PID.TID 0000.0001) %MON dynstat_vvel_del2            =   1.1631158400977E-06
(PID.TID 0000.0001) %MON dynstat_wvel_max             =   1.3473585826949E-03
(PID.TID 0000.0001) %MON dynstat_wvel_min             =  -1.2971410235805E-03
(PID.TID 0000.0001) %MON dynstat_wvel_mean            =   7.4585587632612E-09
(PID.TID 0000.0001) %MON dynstat_wvel_sd              =   2.2373556819912E-05
(PID.TID 0000.0001) %MON dynstat_wvel_del2            =   9.2875401679134E-08
(PID.TID 0000.0001) %MON dynstat_theta_max            =   1.2000000000000E+00
(PID.TID 0000.0001) %MON dynstat_theta_min            =  -1.0000000000000E+00
(PID.TID 0000.0001) %MON dynstat_theta_mean           =   5.6858308791534E-01
(PID.TID 0000.0001) %MON dynstat_theta_sd             =   8.6830282202068E-01
(PID.TID 0000.0001) %MON dynstat_theta_del2           =   3.7388658754700E-06
(PID.TID 0000.0001) %MON dynstat_salt_max             =   3.4700000000000E+01
(PID.TID 0000.0001) %MON dynstat_salt_min             =   3.4000000000000E+01
(PID.TID 0000.0001) %MON dynstat_salt_mean            =   3.4499047381606E+01
(PID.TID 0000.0001) %MON dynstat_salt_sd              =   2.7625977724769E-01
(PID.TID 0000.0001) %MON dynstat_salt_del2            =   1.4769829863237E-06
(PID.TID 0000.0001) %MON advcfl_uvel_max              =   3.4676501400593E-03
(PID.TID 0000.0001) %MON advcfl_vvel_max              =   2.5847673827481E-03
(PID.TID 0000.0001) %MON advcfl_wvel_max              =   6.7367929134743E-03
(PID.TID 0000.0001) %MON advcfl_W_hf_max              =   6.7367929134743E-03
(PID.TID 0000.0001) %MON pe_b_mean                    =  -8.2946930452679E-01
(PID.TID 0000.0001) %MON ke_max                       =   4.5157154666392E-04
(PID.TID 0000.0001) %MON ke_mean                      =   6.5903606479243E-07
(PID.TID 0000.0001) %MON ke_vol                       =   4.2724724532091E+12
(PID.TID 0000.0001) // =======================================================
(PID.TID 0000.0001) // End MONITOR dynamic field statistics
(PID.TID 0000.0001) // =======================================================
(PID.TID 0000.0001) // =======================================================
(PID.TID 0000.0001) // Begin OBCS MONITOR field statistics
(PID.TID 0000.0001) // =======================================================
(PID.TID 0000.0001) %MON obc_N_vVel_max               =   1.5045362423444E-05
(PID.TID 0000.0001) %MON obc_N_vVel_min               =   1.5045362423443E-05
(PID.TID 0000.0001) %MON obc_N_vVel_mean              =   1.5045362423444E-05
(PID.TID 0000.0001) %MON obc_N_vVel_sd                =  -2.0188376825122E-23
(PID.TID 0000.0001) %MON obc_N_vVel_Int               =   9.9299391994729E+02
(PID.TID 0000.0001) // =======================================================
(PID.TID 0000.0001) // End OBCS MONITOR field statistics
(PID.TID 0000.0001) // =======================================================
 cg2d: Sum(rhs),rhsMax =   4.50614504893638E+00  2.99946657749933E+02
(PID.TID 0000.0001)      cg2d_init_res =   8.39018521958371E-06
(PID.TID 0000.0001)      cg2d_iters(min,last) =      -1      83
(PID.TID 0000.0001)      cg2d_last_res =   9.20573174334895E-12
(PID.TID 0000.0001) // =======================================================
(PID.TID 0000.0001) // Begin MONITOR dynamic field statistics
(PID.TID 0000.0001) // =======================================================
(PID.TID 0000.0001) %MON time_tsnumber                =                  1214
(PID.TID 0000.0001) %MON time_secondsf                =   1.2140000000000E+05
(PID.TID 0000.0001) %MON dynstat_eta_max              =   5.7990592285685E+00
(PID.TID 0000.0001) %MON dynstat_eta_min              =  -1.4186252378474E+01
(PID.TID 0000.0001) %MON dynstat_eta_mean             =  -2.5029687903053E+00
(PID.TID 0000.0001) %MON dynstat_eta_sd               =   4.9496224248570E+00
(PID.TID 0000.0001) %MON dynstat_eta_del2             =   2.0715700201876E-01
(PID.TID 0000.0001) %MON dynstat_uvel_max             =   7.6397109983795E-03
(PID.TID 0000.0001) %MON dynstat_uvel_min             =  -3.4758180449660E-02
(PID.TID 0000.0001) %MON dynstat_uvel_mean            =  -1.1311624318798E-07
(PID.TID 0000.0001) %MON dynstat_uvel_sd              =   1.0077089892666E-03
(PID.TID 0000.0001) %MON dynstat_uvel_del2            =   1.4792143628606E-06
(PID.TID 0000.0001) %MON dynstat_vvel_max             =   2.5897388454121E-02
(PID.TID 0000.0001) %MON dynstat_vvel_min             =  -1.1321558717212E-02
(PID.TID 0000.0001) %MON dynstat_vvel_mean            =   1.5372328715998E-05
(PID.TID 0000.0001) %MON dynstat_vvel_sd              =   5.7302917330392E-04
(PID.TID 0000.0001) %MON dynstat_vvel_del2            =   1.1654821980963E-06
(PID.TID 0000.0001) %MON dynstat_wvel_max             =   1.3503023306552E-03
(PID.TID 0000.0001) %MON dynstat_wvel_min             =  -1.2999273511975E-03
(PID.TID 0000.0001) %MON dynstat_wvel_mean            =   7.4414477132349E-09
(PID.TID 0000.0001) %MON dynstat_wvel_sd              =   2.2378168611774E-05
(PID.TID 0000.0001) %MON dynstat_wvel_del2            =   9.2875137732322E-08
(PID.TID 0000.0001) %MON dynstat_theta_max            =   1.2000000000000E+00
(PID.TID 0000.0001) %MON dynstat_theta_min            =  -1.0000000000000E+00
(PID.TID 0000.0001) %MON dynstat_theta_mean           =   5.6858197389502E-01
(PID.TID 0000.0001) %MON dynstat_theta_sd             =   8.6830222116653E-01
(PID.TID 0000.0001) %MON dynstat_theta_del2           =   3.7462097633250E-06
(PID.TID 0000.0001) %MON dynstat_salt_max             =   3.4700000000000E+01
(PID.TID 0000.0001) %MON dynstat_salt_min             =   3.4000000000000E+01
(PID.TID 0000.0001) %MON dynstat_salt_mean            =   3.4499046935713E+01
(PID.TID 0000.0001) %MON dynstat_salt_sd              =   2.7625954603003E-01
(PID.TID 0000.0001) %MON dynstat_salt_del2            =   1.4799311698989E-06
(PID.TID 0000.0001) %MON advcfl_uvel_max              =   3.4758180449660E-03
(PID.TID 0000.0001) %MON advcfl_vvel_max              =   2.5897388454121E-03
(PID.TID 0000.0001) %MON advcfl_wvel_max              =   6.7515116532758E-03
(PID.TID 0000.0001) %MON advcfl_W_hf_max              =   6.7515116532758E-03
(PID.TID 0000.0001) %MON pe_b_mean                    =  -8.2947099224845E-01
(PID.TID 0000.0001) %MON ke_max                       =   4.5405326693573E-04
(PID.TID 0000.0001) %MON ke_mean                      =   6.6196370961664E-07
(PID.TID 0000.0001) %MON ke_vol                       =   4.2724724092871E+12
(PID.TID 0000.0001) // =======================================================
(PID.TID 0000.0001) // End MONITOR dynamic field statistics
(PID.TID 0000.0001) // =======================================================
(PID.TID 0000.0001) // =======================================================
(PID.TID 0000.0001) // Begin OBCS MONITOR field statistics
(PID.TID 0000.0001) // =======================================================
(PID.TID 0000.0001) %MON obc_N_vVel_max               =   1.5056919090711E-05
(PID.TID 0000.0001) %MON obc_N_vVel_min               =   1.5056919090710E-05
(PID.TID 0000.0001) %MON obc_N_vVel_mean              =   1.5056919090711E-05
(PID.TID 0000.0001) %MON obc_N_vVel_sd                =  -2.3264454728054E-25
(PID.TID 0000.0001) %MON obc_N_vVel_Int               =   9.9375665998690E+02
(PID.TID 0000.0001) // =======================================================
(PID.TID 0000.0001) // End OBCS MONITOR field statistics
(PID.TID 0000.0001) // =======================================================
 cg2d: Sum(rhs),rhsMax =   4.50615709908045E+00  2.99946740457447E+02
(PID.TID 0000.0001)      cg2d_init_res =   8.39129349999441E-06
(PID.TID 0000.0001)      cg2d_iters(min,last) =      -1      83
(PID.TID 0000.0001)      cg2d_last_res =   9.20109451198335E-12
(PID.TID 0000.0001) // =======================================================
(PID.TID 0000.0001) // Begin MONITOR dynamic field statistics
(PID.TID 0000.0001) // =======================================================
(PID.TID 0000.0001) %MON time_tsnumber                =                  1215
(PID.TID 0000.0001) %MON time_secondsf                =   1.2150000000000E+05
(PID.TID 0000.0001) %MON dynstat_eta_max              =   5.7990456138786E+00
(PID.TID 0000.0001) %MON dynstat_eta_min              =  -1.4186282382763E+01
(PID.TID 0000.0001) %MON dynstat_eta_mean             =  -2.5029761738118E+00
(PID.TID 0000.0001) %MON dynstat_eta_sd               =   4.9496252655384E+00
(PID.TID 0000.0001) %MON dynstat_eta_del2             =   2.0715704114051E-01
(PID.TID 0000.0001) %MON dynstat_uvel_max             =   7.6571320264414E-03
(PID.TID 0000.0001) %MON dynstat_uvel_min             =  -3.4839985931109E-02
(PID.TID 0000.0001) %MON dynstat_uvel_mean            =  -1.1232160738602E-07
(PID.TID 0000.0001) %MON dynstat_uvel_sd              =   1.0100482858000E-03
(PID.TID 0000.0001) %MON dynstat_uvel_del2            =   1.4827839827836E-06
(PID.TID 0000.0001) %MON dynstat_vvel_max             =   2.5947125731759E-02
(PID.TID 0000.0001) %MON dynstat_vvel_min             =  -1.1350794625786E-02
(PID.TID 0000.0001) %MON dynstat_vvel_mean            =   1.5378772059995E-05
(PID.TID 0000.0001) %MON dynstat_vvel_sd              =   5.7412148637572E-04
(PID.TID 0000.0001) %MON dynstat_vvel_del2            =   1.1678502412272E-06
(PID.TID 0000.0001) %MON dynstat_wvel_max             =   1.3532487776344E-03
(PID.TID 0000.0001) %MON dynstat_wvel_min             =  -1.3027162121517E-03
(PID.TID 0000.0001) %MON dynstat_wvel_mean            =   7.4184561637559E-09
(PID.TID 0000.0001) %MON dynstat_wvel_sd              =   2.2381797071627E-05
(PID.TID 0000.0001) %MON dynstat_wvel_del2            =   9.2863273925971E-08
(PID.TID 0000.0001) %MON dynstat_theta_max            =   1.2000000000000E+00
(PID.TID 0000.0001) %MON dynstat_theta_min            =  -1.0000000000000E+00
(PID.TID 0000.0001) %MON dynstat_theta_mean           =   5.6858085792412E-01
(PID.TID 0000.0001) %MON dynstat_theta_sd             =   8.6830161931396E-01
(PID.TID 0000.0001) %MON dynstat_theta_del2           =   3.7535736846378E-06
(PID.TID 0000.0001) %MON dynstat_salt_max             =   3.4700000000000E+01
(PID.TID 0000.0001) %MON dynstat_salt_min             =   3.4000000000000E+01
(PID.TID 0000.0001) %MON dynstat_salt_mean            =   3.4499046489039E+01
(PID.TID 0000.0001) %MON dynstat_salt_sd              =   2.7625931442983E-01
(PID.TID 0000.0001) %MON dynstat_salt_del2            =   1.4828872170211E-06
(PID.TID 0000.0001) %MON advcfl_uvel_max              =   3.4839985931109E-03
(PID.TID 0000.0001) %MON advcfl_vvel_max              =   2.5947125731759E-03
(PID.TID 0000.0001) %MON advcfl_wvel_max              =   6.7662438881719E-03
(PID.TID 0000.0001) %MON advcfl_W_hf_max              =   6.7662438881719E-03
(PID.TID 0000.0001) %MON pe_b_mean                    =  -8.2947267556045E-01
(PID.TID 0000.0001) %MON ke_max                       =   4.5654688192390E-04
(PID.TID 0000.0001) %MON ke_mean                      =   6.6490358644614E-07
(PID.TID 0000.0001) %MON ke_vol                       =   4.2724723653856E+12
(PID.TID 0000.0001) // =======================================================
(PID.TID 0000.0001) // End MONITOR dynamic field statistics
(PID.TID 0000.0001) // =======================================================
(PID.TID 0000.0001) // =======================================================
(PID.TID 0000.0001) // Begin OBCS MONITOR field statistics
(PID.TID 0000.0001) // =======================================================
(PID.TID 0000.0001) %MON obc_N_vVel_max               =   1.5064997531871E-05
(PID.TID 0000.0001) %MON obc_N_vVel_min               =   1.5064997531870E-05
(PID.TID 0000.0001) %MON obc_N_vVel_mean              =   1.5064997531871E-05
(PID.TID 0000.0001) %MON obc_N_vVel_sd                =  -2.2023683809224E-23
(PID.TID 0000.0001) %MON obc_N_vVel_Int               =   9.9428983710347E+02
(PID.TID 0000.0001) // =======================================================
(PID.TID 0000.0001) // End OBCS MONITOR field statistics
(PID.TID 0000.0001) // =======================================================
 cg2d: Sum(rhs),rhsMax =   4.50616913511922E+00  2.99946822743954E+02
(PID.TID 0000.0001)      cg2d_init_res =   8.39022910750419E-06
(PID.TID 0000.0001)      cg2d_iters(min,last) =      -1      83
(PID.TID 0000.0001)      cg2d_last_res =   9.18985297888977E-12
(PID.TID 0000.0001) // =======================================================
(PID.TID 0000.0001) // Begin MONITOR dynamic field statistics
(PID.TID 0000.0001) // =======================================================
(PID.TID 0000.0001) %MON time_tsnumber                =                  1216
(PID.TID 0000.0001) %MON time_secondsf                =   1.2160000000000E+05
(PID.TID 0000.0001) %MON dynstat_eta_max              =   5.7990320230029E+00
(PID.TID 0000.0001) %MON dynstat_eta_min              =  -1.4186312383569E+01
(PID.TID 0000.0001) %MON dynstat_eta_mean             =  -2.5029835459739E+00
(PID.TID 0000.0001) %MON dynstat_eta_sd               =   4.9496280998979E+00
(PID.TID 0000.0001) %MON dynstat_eta_del2             =   2.0715708031713E-01
(PID.TID 0000.0001) %MON dynstat_uvel_max             =   7.6745842326460E-03
(PID.TID 0000.0001) %MON dynstat_uvel_min             =  -3.4921917995523E-02
(PID.TID 0000.0001) %MON dynstat_uvel_mean            =  -1.1147051278979E-07
(PID.TID 0000.0001) %MON dynstat_uvel_sd              =   1.0123923667516E-03
(PID.TID 0000.0001) %MON dynstat_uvel_del2            =   1.4863622152770E-06
(PID.TID 0000.0001) %MON dynstat_vvel_max             =   2.5996885507102E-02
(PID.TID 0000.0001) %MON dynstat_vvel_min             =  -1.1380098032909E-02
(PID.TID 0000.0001) %MON dynstat_vvel_mean            =   1.5381083853169E-05
(PID.TID 0000.0001) %MON dynstat_vvel_sd              =   5.7521596303456E-04
(PID.TID 0000.0001) %MON dynstat_vvel_del2            =   1.1702226725347E-06
(PID.TID 0000.0001) %MON dynstat_wvel_max             =   1.3561979086915E-03
(PID.TID 0000.0001) %MON dynstat_wvel_min             =  -1.3055075919108E-03
(PID.TID 0000.0001) %MON dynstat_wvel_mean            =   7.3899707729798E-09
(PID.TID 0000.0001) %MON dynstat_wvel_sd              =   2.2386537932771E-05
(PID.TID 0000.0001) %MON dynstat_wvel_del2            =   9.2849832649262E-08
(PID.TID 0000.0001) %MON dynstat_theta_max            =   1.2000000000000E+00
(PID.TID 0000.0001) %MON dynstat_theta_min            =  -1.0000000000000E+00
(PID.TID 0000.0001) %MON dynstat_theta_mean           =   5.6857973999723E-01
(PID.TID 0000.0001) %MON dynstat_theta_sd             =   8.6830101646371E-01
(PID.TID 0000.0001) %MON dynstat_theta_del2           =   3.7609570037692E-06
(PID.TID 0000.0001) %MON dynstat_salt_max             =   3.4700000000000E+01
(PID.TID 0000.0001) %MON dynstat_salt_min             =   3.4000000000000E+01
(PID.TID 0000.0001) %MON dynstat_salt_mean            =   3.4499046041582E+01
(PID.TID 0000.0001) %MON dynstat_salt_sd              =   2.7625908244721E-01
(PID.TID 0000.0001) %MON dynstat_salt_del2            =   1.4858505514177E-06
(PID.TID 0000.0001) %MON advcfl_uvel_max              =   3.4921917995523E-03
(PID.TID 0000.0001) %MON advcfl_vvel_max              =   2.5996885507102E-03
(PID.TID 0000.0001) %MON advcfl_wvel_max              =   6.7809895434573E-03
(PID.TID 0000.0001) %MON advcfl_W_hf_max              =   6.7809895434573E-03
(PID.TID 0000.0001) %MON pe_b_mean                    =  -8.2947435339959E-01
(PID.TID 0000.0001) %MON ke_max                       =   4.5905243922083E-04
(PID.TID 0000.0001) %MON ke_mean                      =   6.6785594927131E-07
(PID.TID 0000.0001) %MON ke_vol                       =   4.2724723215276E+12
(PID.TID 0000.0001) // =======================================================
(PID.TID 0000.0001) // End MONITOR dynamic field statistics
(PID.TID 0000.0001) // =======================================================
(PID.TID 0000.0001) // =======================================================
(PID.TID 0000.0001) // Begin OBCS MONITOR field statistics
(PID.TID 0000.0001) // =======================================================
(PID.TID 0000.0001) %MON obc_N_vVel_max               =   1.5069480073442E-05
(PID.TID 0000.0001) %MON obc_N_vVel_min               =   1.5069480073441E-05
(PID.TID 0000.0001) %MON obc_N_vVel_mean              =   1.5069480073441E-05
(PID.TID 0000.0001) %MON obc_N_vVel_sd                =  -1.3183191012564E-24
(PID.TID 0000.0001) %MON obc_N_vVel_Int               =   9.9458568484714E+02
(PID.TID 0000.0001) // =======================================================
(PID.TID 0000.0001) // End OBCS MONITOR field statistics
(PID.TID 0000.0001) // =======================================================
 cg2d: Sum(rhs),rhsMax =   4.50618115072497E+00  2.99946904540508E+02
(PID.TID 0000.0001)      cg2d_init_res =   8.38711392069087E-06
(PID.TID 0000.0001)      cg2d_iters(min,last) =      -1      83
(PID.TID 0000.0001)      cg2d_last_res =   9.17263396696790E-12
(PID.TID 0000.0001) // =======================================================
(PID.TID 0000.0001) // Begin MONITOR dynamic field statistics
(PID.TID 0000.0001) // =======================================================
(PID.TID 0000.0001) %MON time_tsnumber                =                  1217
(PID.TID 0000.0001) %MON time_secondsf                =   1.2170000000000E+05
(PID.TID 0000.0001) %MON dynstat_eta_max              =   5.7990184630704E+00
(PID.TID 0000.0001) %MON dynstat_eta_min              =  -1.4186342376849E+01
(PID.TID 0000.0001) %MON dynstat_eta_mean             =  -2.5029909027014E+00
(PID.TID 0000.0001) %MON dynstat_eta_sd               =   4.9496309265792E+00
(PID.TID 0000.0001) %MON dynstat_eta_del2             =   2.0715711954742E-01
(PID.TID 0000.0001) %MON dynstat_uvel_max             =   7.6920676362313E-03
(PID.TID 0000.0001) %MON dynstat_uvel_min             =  -3.5003976797896E-02
(PID.TID 0000.0001) %MON dynstat_uvel_mean            =  -1.1064006824902E-07
(PID.TID 0000.0001) %MON dynstat_uvel_sd              =   1.0147412431009E-03
(PID.TID 0000.0001) %MON dynstat_uvel_del2            =   1.4899490501126E-06
(PID.TID 0000.0001) %MON dynstat_vvel_max             =   2.6046667643761E-02
(PID.TID 0000.0001) %MON dynstat_vvel_min             =  -1.1409469093648E-02
(PID.TID 0000.0001) %MON dynstat_vvel_mean            =   1.5379244748458E-05
(PID.TID 0000.0001) %MON dynstat_vvel_sd              =   5.7631294604340E-04
(PID.TID 0000.0001) %MON dynstat_vvel_del2            =   1.1726020895066E-06
(PID.TID 0000.0001) %MON dynstat_wvel_max             =   1.3591497096697E-03
(PID.TID 0000.0001) %MON dynstat_wvel_min             =  -1.3083014765658E-03
(PID.TID 0000.0001) %MON dynstat_wvel_mean            =   7.3564813509566E-09
(PID.TID 0000.0001) %MON dynstat_wvel_sd              =   2.2394401288346E-05
(PID.TID 0000.0001) %MON dynstat_wvel_del2            =   9.2844986914802E-08
(PID.TID 0000.0001) %MON dynstat_theta_max            =   1.2000000000000E+00
(PID.TID 0000.0001) %MON dynstat_theta_min            =  -1.0000000000000E+00
(PID.TID 0000.0001) %MON dynstat_theta_mean           =   5.6857862010893E-01
(PID.TID 0000.0001) %MON dynstat_theta_sd             =   8.6830041261782E-01
(PID.TID 0000.0001) %MON dynstat_theta_del2           =   3.7683581616548E-06
(PID.TID 0000.0001) %MON dynstat_salt_max             =   3.4700000000000E+01
(PID.TID 0000.0001) %MON dynstat_salt_min             =   3.4000000000000E+01
(PID.TID 0000.0001) %MON dynstat_salt_mean            =   3.4499045593340E+01
(PID.TID 0000.0001) %MON dynstat_salt_sd              =   2.7625885008273E-01
(PID.TID 0000.0001) %MON dynstat_salt_del2            =   1.4888207145902E-06
(PID.TID 0000.0001) %MON advcfl_uvel_max              =   3.5003976797896E-03
(PID.TID 0000.0001) %MON advcfl_vvel_max              =   2.6046667643761E-03
(PID.TID 0000.0001) %MON advcfl_wvel_max              =   6.7957485483485E-03
(PID.TID 0000.0001) %MON advcfl_W_hf_max              =   6.7957485483485E-03
(PID.TID 0000.0001) %MON pe_b_mean                    =  -8.2947602470105E-01
(PID.TID 0000.0001) %MON ke_max                       =   4.6156998661200E-04
(PID.TID 0000.0001) %MON ke_mean                      =   6.7082104630668E-07
(PID.TID 0000.0001) %MON ke_vol                       =   4.2724722777369E+12
(PID.TID 0000.0001) // =======================================================
(PID.TID 0000.0001) // End MONITOR dynamic field statistics
(PID.TID 0000.0001) // =======================================================
(PID.TID 0000.0001) // =======================================================
(PID.TID 0000.0001) // Begin OBCS MONITOR field statistics
(PID.TID 0000.0001) // =======================================================
(PID.TID 0000.0001) %MON obc_N_vVel_max               =   1.5070303980576E-05
(PID.TID 0000.0001) %MON obc_N_vVel_min               =   1.5070303980575E-05
(PID.TID 0000.0001) %MON obc_N_vVel_mean              =   1.5070303980576E-05
(PID.TID 0000.0001) %MON obc_N_vVel_sd                =  -9.8744685623518E-24
(PID.TID 0000.0001) %MON obc_N_vVel_Int               =   9.9464006271798E+02
(PID.TID 0000.0001) // =======================================================
(PID.TID 0000.0001) // End OBCS MONITOR field statistics
(PID.TID 0000.0001) // =======================================================
 cg2d: Sum(rhs),rhsMax =   4.50619313946022E+00  2.99946985784718E+02
(PID.TID 0000.0001)      cg2d_init_res =   8.38223656218602E-06
(PID.TID 0000.0001)      cg2d_iters(min,last) =      -1      83
(PID.TID 0000.0001)      cg2d_last_res =   9.15228196924490E-12
(PID.TID 0000.0001) // =======================================================
(PID.TID 0000.0001) // Begin MONITOR dynamic field statistics
(PID.TID 0000.0001) // =======================================================
(PID.TID 0000.0001) %MON time_tsnumber                =                  1218
(PID.TID 0000.0001) %MON time_secondsf                =   1.2180000000000E+05
(PID.TID 0000.0001) %MON dynstat_eta_max              =   5.7990049405275E+00
(PID.TID 0000.0001) %MON dynstat_eta_min              =  -1.4186372358904E+01
(PID.TID 0000.0001) %MON dynstat_eta_mean             =  -2.5029982398979E+00
(PID.TID 0000.0001) %MON dynstat_eta_sd               =   4.9496337442804E+00
(PID.TID 0000.0001) %MON dynstat_eta_del2             =   2.0715715883084E-01
(PID.TID 0000.0001) %MON dynstat_uvel_max             =   7.7095822489603E-03
(PID.TID 0000.0001) %MON dynstat_uvel_min             =  -3.5086162499134E-02
(PID.TID 0000.0001) %MON dynstat_uvel_mean            =  -1.0990162437929E-07
(PID.TID 0000.0001) %MON dynstat_uvel_sd              =   1.0170949258940E-03
(PID.TID 0000.0001) %MON dynstat_uvel_del2            =   1.4935444884816E-06
(PID.TID 0000.0001) %MON dynstat_vvel_max             =   2.6096472003286E-02
(PID.TID 0000.0001) %MON dynstat_vvel_min             =  -1.1438907952284E-02
(PID.TID 0000.0001) %MON dynstat_vvel_mean            =   1.5373300464761E-05
(PID.TID 0000.0001) %MON dynstat_vvel_sd              =   5.7741274098337E-04
(PID.TID 0000.0001) %MON dynstat_vvel_del2            =   1.1749908025051E-06
(PID.TID 0000.0001) %MON dynstat_wvel_max             =   1.3621041667594E-03
(PID.TID 0000.0001) %MON dynstat_wvel_min             =  -1.3110978527416E-03
(PID.TID 0000.0001) %MON dynstat_wvel_mean            =   7.3185685561752E-09
(PID.TID 0000.0001) %MON dynstat_wvel_sd              =   2.2407180598061E-05
(PID.TID 0000.0001) %MON dynstat_wvel_del2            =   9.2858377728051E-08
(PID.TID 0000.0001) %MON dynstat_theta_max            =   1.2000000000000E+00
(PID.TID 0000.0001) %MON dynstat_theta_min            =  -1.0000000000000E+00
(PID.TID 0000.0001) %MON dynstat_theta_mean           =   5.6857749825378E-01
(PID.TID 0000.0001) %MON dynstat_theta_sd             =   8.6829980777480E-01
(PID.TID 0000.0001) %MON dynstat_theta_del2           =   3.7757745406402E-06
(PID.TID 0000.0001) %MON dynstat_salt_max             =   3.4700000000000E+01
(PID.TID 0000.0001) %MON dynstat_salt_min             =   3.4000000000000E+01
(PID.TID 0000.0001) %MON dynstat_salt_mean            =   3.4499045144312E+01
(PID.TID 0000.0001) %MON dynstat_salt_sd              =   2.7625861733591E-01
(PID.TID 0000.0001) %MON dynstat_salt_del2            =   1.4917971609177E-06
(PID.TID 0000.0001) %MON advcfl_uvel_max              =   3.5086162499134E-03
(PID.TID 0000.0001) %MON advcfl_vvel_max              =   2.6096472003286E-03
(PID.TID 0000.0001) %MON advcfl_wvel_max              =   6.8105208337971E-03
(PID.TID 0000.0001) %MON advcfl_W_hf_max              =   6.8105208337971E-03
(PID.TID 0000.0001) %MON pe_b_mean                    =  -8.2947768841540E-01
(PID.TID 0000.0001) %MON ke_max                       =   4.6409957204593E-04
(PID.TID 0000.0001) %MON ke_mean                      =   6.7379910709909E-07
(PID.TID 0000.0001) %MON ke_vol                       =   4.2724722340380E+12
(PID.TID 0000.0001) // =======================================================
(PID.TID 0000.0001) // End MONITOR dynamic field statistics
(PID.TID 0000.0001) // =======================================================
(PID.TID 0000.0001) // =======================================================
(PID.TID 0000.0001) // Begin OBCS MONITOR field statistics
(PID.TID 0000.0001) // =======================================================
(PID.TID 0000.0001) %MON obc_N_vVel_max               =   1.5067464037469E-05
(PID.TID 0000.0001) %MON obc_N_vVel_min               =   1.5067464037469E-05
(PID.TID 0000.0001) %MON obc_N_vVel_mean              =   1.5067464037469E-05
(PID.TID 0000.0001) %MON obc_N_vVel_sd                =   1.8047225997165E-12
(PID.TID 0000.0001) %MON obc_N_vVel_Int               =   9.9445262647294E+02
(PID.TID 0000.0001) // =======================================================
(PID.TID 0000.0001) // End OBCS MONITOR field statistics
(PID.TID 0000.0001) // =======================================================
 cg2d: Sum(rhs),rhsMax =   4.50620509489398E+00  2.99947066420839E+02
(PID.TID 0000.0001)      cg2d_init_res =   8.37593312549792E-06
(PID.TID 0000.0001)      cg2d_iters(min,last) =      -1      83
(PID.TID 0000.0001)      cg2d_last_res =   9.13249015481182E-12
(PID.TID 0000.0001) // =======================================================
(PID.TID 0000.0001) // Begin MONITOR dynamic field statistics
(PID.TID 0000.0001) // =======================================================
(PID.TID 0000.0001) %MON time_tsnumber                =                  1219
(PID.TID 0000.0001) %MON time_secondsf                =   1.2190000000000E+05
(PID.TID 0000.0001) %MON dynstat_eta_max              =   5.7989914612465E+00
(PID.TID 0000.0001) %MON dynstat_eta_min              =  -1.4186402326378E+01
(PID.TID 0000.0001) %MON dynstat_eta_mean             =  -2.5030055535261E+00
(PID.TID 0000.0001) %MON dynstat_eta_sd               =   4.9496365517634E+00
(PID.TID 0000.0001) %MON dynstat_eta_del2             =   2.0715719816673E-01
(PID.TID 0000.0001) %MON dynstat_uvel_max             =   7.7271280780380E-03
(PID.TID 0000.0001) %MON dynstat_uvel_min             =  -3.5168475256230E-02
(PID.TID 0000.0001) %MON dynstat_uvel_mean            =  -1.0931209135918E-07
(PID.TID 0000.0001) %MON dynstat_uvel_sd              =   1.0194534264464E-03
(PID.TID 0000.0001) %MON dynstat_uvel_del2            =   1.4971485358018E-06
(PID.TID 0000.0001) %MON dynstat_vvel_max             =   2.6146298433168E-02
(PID.TID 0000.0001) %MON dynstat_vvel_min             =  -1.1468414739738E-02
(PID.TID 0000.0001) %MON dynstat_vvel_mean            =   1.5363361132896E-05
(PID.TID 0000.0001) %MON dynstat_vvel_sd              =   5.7851559807472E-04
(PID.TID 0000.0001) %MON dynstat_vvel_del2            =   1.1773906913597E-06
(PID.TID 0000.0001) %MON dynstat_wvel_max             =   1.3650612668099E-03
(PID.TID 0000.0001) %MON dynstat_wvel_min             =  -1.3138967078220E-03
(PID.TID 0000.0001) %MON dynstat_wvel_mean            =   7.2768960494335E-09
(PID.TID 0000.0001) %MON dynstat_wvel_sd              =   2.2426335014994E-05
(PID.TID 0000.0001) %MON dynstat_wvel_del2            =   9.2898448438795E-08
(PID.TID 0000.0001) %MON dynstat_theta_max            =   1.2000000000000E+00
(PID.TID 0000.0001) %MON dynstat_theta_min            =  -1.0000000000000E+00
(PID.TID 0000.0001) %MON dynstat_theta_mean           =   5.6857637442640E-01
(PID.TID 0000.0001) %MON dynstat_theta_sd             =   8.6829920193363E-01
(PID.TID 0000.0001) %MON dynstat_theta_del2           =   3.7832042755829E-06
(PID.TID 0000.0001) %MON dynstat_salt_max             =   3.4700000000000E+01
(PID.TID 0000.0001) %MON dynstat_salt_min             =   3.4000000000000E+01
(PID.TID 0000.0001) %MON dynstat_salt_mean            =   3.4499044694494E+01
(PID.TID 0000.0001) %MON dynstat_salt_sd              =   2.7625838420627E-01
(PID.TID 0000.0001) %MON dynstat_salt_del2            =   1.4947794046461E-06
(PID.TID 0000.0001) %MON advcfl_uvel_max              =   3.5168475256230E-03
(PID.TID 0000.0001) %MON advcfl_vvel_max              =   2.6146298433168E-03
(PID.TID 0000.0001) %MON advcfl_wvel_max              =   6.8253063340496E-03
(PID.TID 0000.0001) %MON advcfl_W_hf_max              =   6.8253063340496E-03
(PID.TID 0000.0001) %MON pe_b_mean                    =  -8.2947934352558E-01
(PID.TID 0000.0001) %MON ke_max                       =   4.6664124364734E-04
(PID.TID 0000.0001) %MON ke_mean                      =   6.7679033200639E-07
(PID.TID 0000.0001) %MON ke_vol                       =   4.2724721904550E+12
(PID.TID 0000.0001) // =======================================================
(PID.TID 0000.0001) // End MONITOR dynamic field statistics
(PID.TID 0000.0001) // =======================================================
(PID.TID 0000.0001) // =======================================================
(PID.TID 0000.0001) // Begin OBCS MONITOR field statistics
(PID.TID 0000.0001) // =======================================================
(PID.TID 0000.0001) %MON obc_N_vVel_max               =   1.5061013812444E-05
(PID.TID 0000.0001) %MON obc_N_vVel_min               =   1.5061013812444E-05
(PID.TID 0000.0001) %MON obc_N_vVel_mean              =   1.5061013812444E-05
(PID.TID 0000.0001) %MON obc_N_vVel_sd                =  -3.4638188150658E-24
(PID.TID 0000.0001) %MON obc_N_vVel_Int               =   9.9402691162133E+02
(PID.TID 0000.0001) // =======================================================
(PID.TID 0000.0001) // End OBCS MONITOR field statistics
(PID.TID 0000.0001) // =======================================================
 cg2d: Sum(rhs),rhsMax =   4.50621701069534E+00  2.99947146401386E+02
(PID.TID 0000.0001)      cg2d_init_res =   8.36853652271802E-06
(PID.TID 0000.0001)      cg2d_iters(min,last) =      -1      83
(PID.TID 0000.0001)      cg2d_last_res =   9.11664720619825E-12
(PID.TID 0000.0001) // =======================================================
(PID.TID 0000.0001) // Begin MONITOR dynamic field statistics
(PID.TID 0000.0001) // =======================================================
(PID.TID 0000.0001) %MON time_tsnumber                =                  1220
(PID.TID 0000.0001) %MON time_secondsf                =   1.2200000000000E+05
(PID.TID 0000.0001) %MON dynstat_eta_max              =   5.7989780306392E+00
(PID.TID 0000.0001) %MON dynstat_eta_min              =  -1.4186432276279E+01
(PID.TID 0000.0001) %MON dynstat_eta_mean             =  -2.5030128396731E+00
(PID.TID 0000.0001) %MON dynstat_eta_sd               =   4.9496393478739E+00
(PID.TID 0000.0001) %MON dynstat_eta_del2             =   2.0715723755428E-01
(PID.TID 0000.0001) %MON dynstat_uvel_max             =   7.7447051286121E-03
(PID.TID 0000.0001) %MON dynstat_uvel_min             =  -3.5250915224439E-02
(PID.TID 0000.0001) %MON dynstat_uvel_mean            =  -1.0890762016465E-07
(PID.TID 0000.0001) %MON dynstat_uvel_sd              =   1.0218167565518E-03
(PID.TID 0000.0001) %MON dynstat_uvel_del2            =   1.5007611942147E-06
(PID.TID 0000.0001) %MON dynstat_vvel_max             =   2.6196146761216E-02
(PID.TID 0000.0001) %MON dynstat_vvel_min             =  -1.1497989568600E-02
(PID.TID 0000.0001) %MON dynstat_vvel_mean            =   1.5349599872775E-05
(PID.TID 0000.0001) %MON dynstat_vvel_sd              =   5.7962169791322E-04
(PID.TID 0000.0001) %MON dynstat_vvel_del2            =   1.1798030920340E-06
(PID.TID 0000.0001) %MON dynstat_wvel_max             =   1.3680209974385E-03
(PID.TID 0000.0001) %MON dynstat_wvel_min             =  -1.3166980304745E-03
(PID.TID 0000.0001) %MON dynstat_wvel_mean            =   7.2321917726418E-09
(PID.TID 0000.0001) %MON dynstat_wvel_sd              =   2.2452893597760E-05
(PID.TID 0000.0001) %MON dynstat_wvel_del2            =   9.2971843936838E-08
(PID.TID 0000.0001) %MON dynstat_theta_max            =   1.2000000000000E+00
(PID.TID 0000.0001) %MON dynstat_theta_min            =  -1.0000000000000E+00
(PID.TID 0000.0001) %MON dynstat_theta_mean           =   5.6857524862152E-01
(PID.TID 0000.0001) %MON dynstat_theta_sd             =   8.6829859509015E-01
(PID.TID 0000.0001) %MON dynstat_theta_del2           =   3.7906461398803E-06
(PID.TID 0000.0001) %MON dynstat_salt_max             =   3.4700000000000E+01
(PID.TID 0000.0001) %MON dynstat_salt_min             =   3.4000000000000E+01
(PID.TID 0000.0001) %MON dynstat_salt_mean            =   3.4499044243886E+01
(PID.TID 0000.0001) %MON dynstat_salt_sd              =   2.7625815069232E-01
(PID.TID 0000.0001) %MON dynstat_salt_del2            =   1.4977671634318E-06
(PID.TID 0000.0001) %MON advcfl_uvel_max              =   3.5250915224439E-03
(PID.TID 0000.0001) %MON advcfl_vvel_max              =   2.6196146761216E-03
(PID.TID 0000.0001) %MON advcfl_wvel_max              =   6.8401049871923E-03
(PID.TID 0000.0001) %MON advcfl_W_hf_max              =   6.8401049871923E-03
(PID.TID 0000.0001) %MON pe_b_mean                    =  -8.2948098906352E-01
(PID.TID 0000.0001) %MON ke_max                       =   4.6919504929693E-04
(PID.TID 0000.0001) %MON ke_mean                      =   6.7979488381849E-07
(PID.TID 0000.0001) %MON ke_vol                       =   4.2724721470121E+12
(PID.TID 0000.0001) // =======================================================
(PID.TID 0000.0001) // End MONITOR dynamic field statistics
(PID.TID 0000.0001) // =======================================================
(PID.TID 0000.0001) // =======================================================
(PID.TID 0000.0001) // Begin OBCS MONITOR field statistics
(PID.TID 0000.0001) // =======================================================
(PID.TID 0000.0001) %MON obc_N_vVel_max               =   1.5051065739542E-05
(PID.TID 0000.0001) %MON obc_N_vVel_min               =   1.5051065739542E-05
(PID.TID 0000.0001) %MON obc_N_vVel_mean              =   1.5051065739542E-05
(PID.TID 0000.0001) %MON obc_N_vVel_sd                =   3.8485975164373E-12
(PID.TID 0000.0001) %MON obc_N_vVel_Int               =   9.9337033880975E+02
(PID.TID 0000.0001) // =======================================================
(PID.TID 0000.0001) // End OBCS MONITOR field statistics
(PID.TID 0000.0001) // =======================================================
 cg2d: Sum(rhs),rhsMax =   4.50622888074026E+00  2.99947225687691E+02
(PID.TID 0000.0001)      cg2d_init_res =   8.36035650635821E-06
(PID.TID 0000.0001)      cg2d_iters(min,last) =      -1      83
(PID.TID 0000.0001)      cg2d_last_res =   9.10690173847619E-12
(PID.TID 0000.0001) // =======================================================
(PID.TID 0000.0001) // Begin MONITOR dynamic field statistics
(PID.TID 0000.0001) // =======================================================
(PID.TID 0000.0001) %MON time_tsnumber                =                  1221
(PID.TID 0000.0001) %MON time_secondsf                =   1.2210000000000E+05
(PID.TID 0000.0001) %MON dynstat_eta_max              =   5.7989646537436E+00
(PID.TID 0000.0001) %MON dynstat_eta_min              =  -1.4186462205969E+01
(PID.TID 0000.0001) %MON dynstat_eta_mean             =  -2.5030200946144E+00
(PID.TID 0000.0001) %MON dynstat_eta_sd               =   4.9496421315742E+00
(PID.TID 0000.0001) %MON dynstat_eta_del2             =   2.0715727699309E-01
(PID.TID 0000.0001) %MON dynstat_uvel_max             =   7.7623134026048E-03
(PID.TID 0000.0001) %MON dynstat_uvel_min             =  -3.5333482554744E-02
(PID.TID 0000.0001) %MON dynstat_uvel_mean            =  -1.0870060052897E-07
(PID.TID 0000.0001) %MON dynstat_uvel_sd              =   1.0241849281797E-03
(PID.TID 0000.0001) %MON dynstat_uvel_del2            =   1.5043824708772E-06
(PID.TID 0000.0001) %MON dynstat_vvel_max             =   2.6246016795663E-02
(PID.TID 0000.0001) %MON dynstat_vvel_min             =  -1.1527632526688E-02
(PID.TID 0000.0001) %MON dynstat_vvel_mean            =   1.5332250488125E-05
(PID.TID 0000.0001) %MON dynstat_vvel_sd              =   5.8073114139281E-04
(PID.TID 0000.0001) %MON dynstat_vvel_del2            =   1.1822287059081E-06
(PID.TID 0000.0001) %MON dynstat_wvel_max             =   1.3709833469430E-03
(PID.TID 0000.0001) %MON dynstat_wvel_min             =  -1.3195018109619E-03
(PID.TID 0000.0001) %MON dynstat_wvel_mean            =   7.1852273241527E-09
(PID.TID 0000.0001) %MON dynstat_wvel_sd              =   2.2487388853942E-05
(PID.TID 0000.0001) %MON dynstat_wvel_del2            =   9.3082926826576E-08
(PID.TID 0000.0001) %MON dynstat_theta_max            =   1.2000000000000E+00
(PID.TID 0000.0001) %MON dynstat_theta_min            =  -1.0000000000000E+00
(PID.TID 0000.0001) %MON dynstat_theta_mean           =   5.6857412083397E-01
(PID.TID 0000.0001) %MON dynstat_theta_sd             =   8.6829798723859E-01
(PID.TID 0000.0001) %MON dynstat_theta_del2           =   3.7980995484986E-06
(PID.TID 0000.0001) %MON dynstat_salt_max             =   3.4700000000000E+01
(PID.TID 0000.0001) %MON dynstat_salt_min             =   3.4000000000000E+01
(PID.TID 0000.0001) %MON dynstat_salt_mean            =   3.4499043792485E+01
(PID.TID 0000.0001) %MON dynstat_salt_sd              =   2.7625791679239E-01
(PID.TID 0000.0001) %MON dynstat_salt_del2            =   1.5007607829574E-06
(PID.TID 0000.0001) %MON advcfl_uvel_max              =   3.5333482554744E-03
(PID.TID 0000.0001) %MON advcfl_vvel_max              =   2.6246016795663E-03
(PID.TID 0000.0001) %MON advcfl_wvel_max              =   6.8549167347151E-03
(PID.TID 0000.0001) %MON advcfl_W_hf_max              =   6.8549167347151E-03
(PID.TID 0000.0001) %MON pe_b_mean                    =  -8.2948262412567E-01
(PID.TID 0000.0001) %MON ke_max                       =   4.7176103597860E-04
(PID.TID 0000.0001) %MON ke_mean                      =   6.8281288118366E-07
(PID.TID 0000.0001) %MON ke_vol                       =   4.2724721037323E+12
(PID.TID 0000.0001) // =======================================================
(PID.TID 0000.0001) // End MONITOR dynamic field statistics
(PID.TID 0000.0001) // =======================================================
(PID.TID 0000.0001) // =======================================================
(PID.TID 0000.0001) // Begin OBCS MONITOR field statistics
(PID.TID 0000.0001) // =======================================================
(PID.TID 0000.0001) %MON obc_N_vVel_max               =   1.5037789733720E-05
(PID.TID 0000.0001) %MON obc_N_vVel_min               =   1.5037789733720E-05
(PID.TID 0000.0001) %MON obc_N_vVel_mean              =   1.5037789733720E-05
(PID.TID 0000.0001) %MON obc_N_vVel_sd                =   4.3824764514730E-12
(PID.TID 0000.0001) %MON obc_N_vVel_Int               =   9.9249412242549E+02
(PID.TID 0000.0001) // =======================================================
(PID.TID 0000.0001) // End OBCS MONITOR field statistics
(PID.TID 0000.0001) // =======================================================
 cg2d: Sum(rhs),rhsMax =   4.50624069921103E+00  2.99947304250607E+02
(PID.TID 0000.0001)      cg2d_init_res =   8.35170084581552E-06
(PID.TID 0000.0001)      cg2d_iters(min,last) =      -1      83
(PID.TID 0000.0001)      cg2d_last_res =   9.10417555916598E-12
(PID.TID 0000.0001) // =======================================================
(PID.TID 0000.0001) // Begin MONITOR dynamic field statistics
(PID.TID 0000.0001) // =======================================================
(PID.TID 0000.0001) %MON time_tsnumber                =                  1222
(PID.TID 0000.0001) %MON time_secondsf                =   1.2220000000000E+05
(PID.TID 0000.0001) %MON dynstat_eta_max              =   5.7989513430335E+00
(PID.TID 0000.0001) %MON dynstat_eta_min              =  -1.4186492113161E+01
(PID.TID 0000.0001) %MON dynstat_eta_mean             =  -2.5030273148754E+00
(PID.TID 0000.0001) %MON dynstat_eta_sd               =   4.9496449019578E+00
(PID.TID 0000.0001) %MON dynstat_eta_del2             =   2.0715731648299E-01
(PID.TID 0000.0001) %MON dynstat_uvel_max             =   7.7799529020233E-03
(PID.TID 0000.0001) %MON dynstat_uvel_min             =  -3.5416177377401E-02
(PID.TID 0000.0001) %MON dynstat_uvel_mean            =  -1.0868026422287E-07
(PID.TID 0000.0001) %MON dynstat_uvel_sd              =   1.0265579534876E-03
(PID.TID 0000.0001) %MON dynstat_uvel_del2            =   1.5080123797363E-06
(PID.TID 0000.0001) %MON dynstat_vvel_max             =   2.6295908329678E-02
(PID.TID 0000.0001) %MON dynstat_vvel_min             =  -1.1557343672484E-02
(PID.TID 0000.0001) %MON dynstat_vvel_mean            =   1.5311604205813E-05
(PID.TID 0000.0001) %MON dynstat_vvel_sd              =   5.8184394539039E-04
(PID.TID 0000.0001) %MON dynstat_vvel_del2            =   1.1846675637777E-06
(PID.TID 0000.0001) %MON dynstat_wvel_max             =   1.3739483041026E-03
(PID.TID 0000.0001) %MON dynstat_wvel_min             =  -1.3223080417184E-03
(PID.TID 0000.0001) %MON dynstat_wvel_mean            =   7.1367976201597E-09
(PID.TID 0000.0001) %MON dynstat_wvel_sd              =   2.2529824922055E-05
(PID.TID 0000.0001) %MON dynstat_wvel_del2            =   9.3233452278711E-08
(PID.TID 0000.0001) %MON dynstat_theta_max            =   1.2000000000000E+00
(PID.TID 0000.0001) %MON dynstat_theta_min            =  -1.0000000000000E+00
(PID.TID 0000.0001) %MON dynstat_theta_mean           =   5.6857299105876E-01
(PID.TID 0000.0001) %MON dynstat_theta_sd             =   8.6829737837199E-01
(PID.TID 0000.0001) %MON dynstat_theta_del2           =   3.8055644232983E-06
(PID.TID 0000.0001) %MON dynstat_salt_max             =   3.4700000000000E+01
(PID.TID 0000.0001) %MON dynstat_salt_min             =   3.4000000000000E+01
(PID.TID 0000.0001) %MON dynstat_salt_mean            =   3.4499043340290E+01
(PID.TID 0000.0001) %MON dynstat_salt_sd              =   2.7625768250398E-01
(PID.TID 0000.0001) %MON dynstat_salt_del2            =   1.5037597548605E-06
(PID.TID 0000.0001) %MON advcfl_uvel_max              =   3.5416177377401E-03
(PID.TID 0000.0001) %MON advcfl_vvel_max              =   2.6295908329678E-03
(PID.TID 0000.0001) %MON advcfl_wvel_max              =   6.8697415205131E-03
(PID.TID 0000.0001) %MON advcfl_W_hf_max              =   6.8697415205131E-03
(PID.TID 0000.0001) %MON pe_b_mean                    =  -8.2948424788743E-01
(PID.TID 0000.0001) %MON ke_max                       =   4.7433924966573E-04
(PID.TID 0000.0001) %MON ke_mean                      =   6.8584439561396E-07
(PID.TID 0000.0001) %MON ke_vol                       =   4.2724720606380E+12
(PID.TID 0000.0001) // =======================================================
(PID.TID 0000.0001) // End MONITOR dynamic field statistics
(PID.TID 0000.0001) // =======================================================
(PID.TID 0000.0001) // =======================================================
(PID.TID 0000.0001) // Begin OBCS MONITOR field statistics
(PID.TID 0000.0001) // =======================================================
(PID.TID 0000.0001) %MON obc_N_vVel_max               =   1.5021410683977E-05
(PID.TID 0000.0001) %MON obc_N_vVel_min               =   1.5021410683976E-05
(PID.TID 0000.0001) %MON obc_N_vVel_mean              =   1.5021410683977E-05
(PID.TID 0000.0001) %MON obc_N_vVel_sd                =  -8.6336976435222E-24
(PID.TID 0000.0001) %MON obc_N_vVel_Int               =   9.9141310514246E+02
(PID.TID 0000.0001) // =======================================================
(PID.TID 0000.0001) // End OBCS MONITOR field statistics
(PID.TID 0000.0001) // =======================================================
 cg2d: Sum(rhs),rhsMax =   4.50625246071664E+00  2.99947382069297E+02
(PID.TID 0000.0001)      cg2d_init_res =   8.34289816721714E-06
(PID.TID 0000.0001)      cg2d_iters(min,last) =      -1      83
(PID.TID 0000.0001)      cg2d_last_res =   9.10791775797166E-12
(PID.TID 0000.0001) // =======================================================
(PID.TID 0000.0001) // Begin MONITOR dynamic field statistics
(PID.TID 0000.0001) // =======================================================
(PID.TID 0000.0001) %MON time_tsnumber                =                  1223
(PID.TID 0000.0001) %MON time_secondsf                =   1.2230000000000E+05
(PID.TID 0000.0001) %MON dynstat_eta_max              =   5.7989380948051E+00
(PID.TID 0000.0001) %MON dynstat_eta_min              =  -1.4186521995912E+01
(PID.TID 0000.0001) %MON dynstat_eta_mean             =  -2.5030344972876E+00
(PID.TID 0000.0001) %MON dynstat_eta_sd               =   4.9496476582607E+00
(PID.TID 0000.0001) %MON dynstat_eta_del2             =   2.0715735602380E-01
(PID.TID 0000.0001) %MON dynstat_uvel_max             =   7.7976236306689E-03
(PID.TID 0000.0001) %MON dynstat_uvel_min             =  -3.5498999801633E-02
(PID.TID 0000.0001) %MON dynstat_uvel_mean            =  -1.0881643515168E-07
(PID.TID 0000.0001) %MON dynstat_uvel_sd              =   1.0289358447754E-03
(PID.TID 0000.0001) %MON dynstat_uvel_del2            =   1.5116509377261E-06
(PID.TID 0000.0001) %MON dynstat_vvel_max             =   2.6345821148859E-02
(PID.TID 0000.0001) %MON dynstat_vvel_min             =  -1.1587123035863E-02
(PID.TID 0000.0001) %MON dynstat_vvel_mean            =   1.5288005346787E-05
(PID.TID 0000.0001) %MON dynstat_vvel_sd              =   5.8296004387989E-04
(PID.TID 0000.0001) %MON dynstat_vvel_del2            =   1.1871190287737E-06
(PID.TID 0000.0001) %MON dynstat_wvel_max             =   1.3769158578251E-03
(PID.TID 0000.0001) %MON dynstat_wvel_min             =  -1.3251167173476E-03
(PID.TID 0000.0001) %MON dynstat_wvel_mean            =   7.0877056569783E-09
(PID.TID 0000.0001) %MON dynstat_wvel_sd              =   2.2579682699144E-05
(PID.TID 0000.0001) %MON dynstat_wvel_del2            =   9.3422428641689E-08
(PID.TID 0000.0001) %MON dynstat_theta_max            =   1.2000000000000E+00
(PID.TID 0000.0001) %MON dynstat_theta_min            =  -1.0000000000000E+00
(PID.TID 0000.0001) %MON dynstat_theta_mean           =   5.6857185929109E-01
(PID.TID 0000.0001) %MON dynstat_theta_sd             =   8.6829676848429E-01
(PID.TID 0000.0001) %MON dynstat_theta_del2           =   3.8130417137777E-06
(PID.TID 0000.0001) %MON dynstat_salt_max             =   3.4700000000000E+01
(PID.TID 0000.0001) %MON dynstat_salt_min             =   3.4000000000000E+01
(PID.TID 0000.0001) %MON dynstat_salt_mean            =   3.4499042887298E+01
(PID.TID 0000.0001) %MON dynstat_salt_sd              =   2.7625744782535E-01
(PID.TID 0000.0001) %MON dynstat_salt_del2            =   1.5067643393932E-06
(PID.TID 0000.0001) %MON advcfl_uvel_max              =   3.5498999801633E-03
(PID.TID 0000.0001) %MON advcfl_vvel_max              =   2.6345821148859E-03
(PID.TID 0000.0001) %MON advcfl_wvel_max              =   6.8845792891255E-03
(PID.TID 0000.0001) %MON advcfl_W_hf_max              =   6.8845792891255E-03
(PID.TID 0000.0001) %MON pe_b_mean                    =  -8.2948585961605E-01
(PID.TID 0000.0001) %MON ke_max                       =   4.7692973534084E-04
(PID.TID 0000.0001) %MON ke_mean                      =   6.8888945154561E-07
(PID.TID 0000.0001) %MON ke_vol                       =   4.2724720177496E+12
(PID.TID 0000.0001) // =======================================================
(PID.TID 0000.0001) // End MONITOR dynamic field statistics
(PID.TID 0000.0001) // =======================================================
(PID.TID 0000.0001) // =======================================================
(PID.TID 0000.0001) // Begin OBCS MONITOR field statistics
(PID.TID 0000.0001) // =======================================================
(PID.TID 0000.0001) %MON obc_N_vVel_max               =   1.5002204545115E-05
(PID.TID 0000.0001) %MON obc_N_vVel_min               =   1.5002204545115E-05
(PID.TID 0000.0001) %MON obc_N_vVel_mean              =   1.5002204545115E-05
(PID.TID 0000.0001) %MON obc_N_vVel_sd                =   7.7106164816601E-13
(PID.TID 0000.0001) %MON obc_N_vVel_Int               =   9.9014549997760E+02
(PID.TID 0000.0001) // =======================================================
(PID.TID 0000.0001) // End OBCS MONITOR field statistics
(PID.TID 0000.0001) // =======================================================
 cg2d: Sum(rhs),rhsMax =   4.50626416033706E+00  2.99947459134429E+02
(PID.TID 0000.0001)      cg2d_init_res =   8.33422299318926E-06
(PID.TID 0000.0001)      cg2d_iters(min,last) =      -1      83
(PID.TID 0000.0001)      cg2d_last_res =   9.11675922999486E-12
(PID.TID 0000.0001) // =======================================================
(PID.TID 0000.0001) // Begin MONITOR dynamic field statistics
(PID.TID 0000.0001) // =======================================================
(PID.TID 0000.0001) %MON time_tsnumber                =                  1224
(PID.TID 0000.0001) %MON time_secondsf                =   1.2240000000000E+05
(PID.TID 0000.0001) %MON dynstat_eta_max              =   5.7989249132117E+00
(PID.TID 0000.0001) %MON dynstat_eta_min              =  -1.4186551852613E+01
(PID.TID 0000.0001) %MON dynstat_eta_mean             =  -2.5030416390401E+00
(PID.TID 0000.0001) %MON dynstat_eta_sd               =   4.9496503998811E+00
(PID.TID 0000.0001) %MON dynstat_eta_del2             =   2.0715739561559E-01
(PID.TID 0000.0001) %MON dynstat_uvel_max             =   7.8153255955513E-03
(PID.TID 0000.0001) %MON dynstat_uvel_min             =  -3.5581949919976E-02
(PID.TID 0000.0001) %MON dynstat_uvel_mean            =  -1.0906549100937E-07
(PID.TID 0000.0001) %MON dynstat_uvel_sd              =   1.0313186145344E-03
(PID.TID 0000.0001) %MON dynstat_uvel_del2            =   1.5152981660660E-06
(PID.TID 0000.0001) %MON dynstat_vvel_max             =   2.6395755039280E-02
(PID.TID 0000.0001) %MON dynstat_vvel_min             =  -1.1616970623374E-02
(PID.TID 0000.0001) %MON dynstat_vvel_mean            =   1.5261845905944E-05
(PID.TID 0000.0001) %MON dynstat_vvel_sd              =   5.8407929463217E-04
(PID.TID 0000.0001) %MON dynstat_vvel_del2            =   1.1895818548948E-06
(PID.TID 0000.0001) %MON dynstat_wvel_max             =   1.3798859970032E-03
(PID.TID 0000.0001) %MON dynstat_wvel_min             =  -1.3279278342340E-03
(PID.TID 0000.0001) %MON dynstat_wvel_mean            =   7.0387469615055E-09
(PID.TID 0000.0001) %MON dynstat_wvel_sd              =   2.2635961941063E-05
(PID.TID 0000.0001) %MON dynstat_wvel_del2            =   9.3646188798491E-08
(PID.TID 0000.0001) %MON dynstat_theta_max            =   1.2000000000000E+00
(PID.TID 0000.0001) %MON dynstat_theta_min            =  -1.0000000000000E+00
(PID.TID 0000.0001) %MON dynstat_theta_mean           =   5.6857072552633E-01
(PID.TID 0000.0001) %MON dynstat_theta_sd             =   8.6829615757112E-01
(PID.TID 0000.0001) %MON dynstat_theta_del2           =   3.8205328215497E-06
(PID.TID 0000.0001) %MON dynstat_salt_max             =   3.4700000000000E+01
(PID.TID 0000.0001) %MON dynstat_salt_min             =   3.4000000000000E+01
(PID.TID 0000.0001) %MON dynstat_salt_mean            =   3.4499042433508E+01
(PID.TID 0000.0001) %MON dynstat_salt_sd              =   2.7625721275490E-01
(PID.TID 0000.0001) %MON dynstat_salt_del2            =   1.5097749340378E-06
(PID.TID 0000.0001) %MON advcfl_uvel_max              =   3.5581949919976E-03
(PID.TID 0000.0001) %MON advcfl_vvel_max              =   2.6395755039280E-03
(PID.TID 0000.0001) %MON advcfl_wvel_max              =   6.8994299850160E-03
(PID.TID 0000.0001) %MON advcfl_W_hf_max              =   6.8994299850160E-03
(PID.TID 0000.0001) %MON pe_b_mean                    =  -8.2948745868191E-01
(PID.TID 0000.0001) %MON ke_max                       =   4.7953253714459E-04
(PID.TID 0000.0001) %MON ke_mean                      =   6.9194802974275E-07
(PID.TID 0000.0001) %MON ke_vol                       =   4.2724719750861E+12
(PID.TID 0000.0001) // =======================================================
(PID.TID 0000.0001) // End MONITOR dynamic field statistics
(PID.TID 0000.0001) // =======================================================
(PID.TID 0000.0001) // =======================================================
(PID.TID 0000.0001) // Begin OBCS MONITOR field statistics
(PID.TID 0000.0001) // =======================================================
(PID.TID 0000.0001) %MON obc_N_vVel_max               =   1.4980493560467E-05
(PID.TID 0000.0001) %MON obc_N_vVel_min               =   1.4980493560467E-05
(PID.TID 0000.0001) %MON obc_N_vVel_mean              =   1.4980493560467E-05
(PID.TID 0000.0001) %MON obc_N_vVel_sd                =   2.6123246455145E-12
(PID.TID 0000.0001) %MON obc_N_vVel_Int               =   9.8871257499079E+02
(PID.TID 0000.0001) // =======================================================
(PID.TID 0000.0001) // End OBCS MONITOR field statistics
(PID.TID 0000.0001) // =======================================================
 cg2d: Sum(rhs),rhsMax =   4.50627579374082E+00  2.99947535445793E+02
(PID.TID 0000.0001)      cg2d_init_res =   8.32594371972264E-06
(PID.TID 0000.0001)      cg2d_iters(min,last) =      -1      83
(PID.TID 0000.0001)      cg2d_last_res =   9.12879274095368E-12
(PID.TID 0000.0001) // =======================================================
(PID.TID 0000.0001) // Begin MONITOR dynamic field statistics
(PID.TID 0000.0001) // =======================================================
(PID.TID 0000.0001) %MON time_tsnumber                =                  1225
(PID.TID 0000.0001) %MON time_secondsf                =   1.2250000000000E+05
(PID.TID 0000.0001) %MON dynstat_eta_max              =   5.7989118019154E+00
(PID.TID 0000.0001) %MON dynstat_eta_min              =  -1.4186581682021E+01
(PID.TID 0000.0001) %MON dynstat_eta_mean             =  -2.5030487377252E+00
(PID.TID 0000.0001) %MON dynstat_eta_sd               =   4.9496531263865E+00
(PID.TID 0000.0001) %MON dynstat_eta_del2             =   2.0715743525856E-01
(PID.TID 0000.0001) %MON dynstat_uvel_max             =   7.8330588040387E-03
(PID.TID 0000.0001) %MON dynstat_uvel_min             =  -3.5665027814623E-02
(PID.TID 0000.0001) %MON dynstat_uvel_mean            =  -1.0937738056407E-07
(PID.TID 0000.0001) %MON dynstat_uvel_sd              =   1.0337062755006E-03
(PID.TID 0000.0001) %MON dynstat_uvel_del2            =   1.5189540897446E-06
(PID.TID 0000.0001) %MON dynstat_vvel_max             =   2.6445709794753E-02
(PID.TID 0000.0001) %MON dynstat_vvel_min             =  -1.1646886425524E-02
(PID.TID 0000.0001) %MON dynstat_vvel_mean            =   1.5233559107641E-05
(PID.TID 0000.0001) %MON dynstat_vvel_sd              =   5.8520149089149E-04
(PID.TID 0000.0001) %MON dynstat_vvel_del2            =   1.1920542856983E-06
(PID.TID 0000.0001) %MON dynstat_wvel_max             =   1.3828587103781E-03
(PID.TID 0000.0001) %MON dynstat_wvel_min             =  -1.3307413898970E-03
(PID.TID 0000.0001) %MON dynstat_wvel_mean            =   6.9907015248252E-09
(PID.TID 0000.0001) %MON dynstat_wvel_sd              =   2.2697256382032E-05
(PID.TID 0000.0001) %MON dynstat_wvel_del2            =   9.3898659789044E-08
(PID.TID 0000.0001) %MON dynstat_theta_max            =   1.2000000000000E+00
(PID.TID 0000.0001) %MON dynstat_theta_min            =  -1.0000000000000E+00
(PID.TID 0000.0001) %MON dynstat_theta_mean           =   5.6856958976012E-01
(PID.TID 0000.0001) %MON dynstat_theta_sd             =   8.6829554562852E-01
(PID.TID 0000.0001) %MON dynstat_theta_del2           =   3.8280399794605E-06
(PID.TID 0000.0001) %MON dynstat_salt_max             =   3.4700000000000E+01
(PID.TID 0000.0001) %MON dynstat_salt_min             =   3.4000000000000E+01
(PID.TID 0000.0001) %MON dynstat_salt_mean            =   3.4499041978919E+01
(PID.TID 0000.0001) %MON dynstat_salt_sd              =   2.7625697729138E-01
(PID.TID 0000.0001) %MON dynstat_salt_del2            =   1.5127920701443E-06
(PID.TID 0000.0001) %MON advcfl_uvel_max              =   3.5665027814623E-03
(PID.TID 0000.0001) %MON advcfl_vvel_max              =   2.6445709794753E-03
(PID.TID 0000.0001) %MON advcfl_wvel_max              =   6.9142935518906E-03
(PID.TID 0000.0001) %MON advcfl_W_hf_max              =   6.9142935518906E-03
(PID.TID 0000.0001) %MON pe_b_mean                    =  -8.2948904456823E-01
(PID.TID 0000.0001) %MON ke_max                       =   4.8214769865449E-04
(PID.TID 0000.0001) %MON ke_mean                      =   6.9502007364318E-07
(PID.TID 0000.0001) %MON ke_vol                       =   4.2724719326641E+12
(PID.TID 0000.0001) // =======================================================
(PID.TID 0000.0001) // End MONITOR dynamic field statistics
(PID.TID 0000.0001) // =======================================================
(PID.TID 0000.0001) // =======================================================
(PID.TID 0000.0001) // Begin OBCS MONITOR field statistics
(PID.TID 0000.0001) // =======================================================
(PID.TID 0000.0001) %MON obc_N_vVel_max               =   1.4956640363559E-05
(PID.TID 0000.0001) %MON obc_N_vVel_min               =   1.4956640363559E-05
(PID.TID 0000.0001) %MON obc_N_vVel_mean              =   1.4956640363559E-05
(PID.TID 0000.0001) %MON obc_N_vVel_sd                =   3.7842521526484E-12
(PID.TID 0000.0001) %MON obc_N_vVel_Int               =   9.8713826399490E+02
(PID.TID 0000.0001) // =======================================================
(PID.TID 0000.0001) // End OBCS MONITOR field statistics
(PID.TID 0000.0001) // =======================================================
 cg2d: Sum(rhs),rhsMax =   4.50628735724143E+00  2.99947611013030E+02
(PID.TID 0000.0001)      cg2d_init_res =   8.31829185069102E-06
(PID.TID 0000.0001)      cg2d_iters(min,last) =      -1      83
(PID.TID 0000.0001)      cg2d_last_res =   9.14213710976134E-12
(PID.TID 0000.0001) // =======================================================
(PID.TID 0000.0001) // Begin MONITOR dynamic field statistics
(PID.TID 0000.0001) // =======================================================
(PID.TID 0000.0001) %MON time_tsnumber                =                  1226
(PID.TID 0000.0001) %MON time_secondsf                =   1.2260000000000E+05
(PID.TID 0000.0001) %MON dynstat_eta_max              =   5.7988987640663E+00
(PID.TID 0000.0001) %MON dynstat_eta_min              =  -1.4186611483270E+01
(PID.TID 0000.0001) %MON dynstat_eta_mean             =  -2.5030557913755E+00
(PID.TID 0000.0001) %MON dynstat_eta_sd               =   4.9496558375201E+00
(PID.TID 0000.0001) %MON dynstat_eta_del2             =   2.0715747495303E-01
(PID.TID 0000.0001) %MON dynstat_uvel_max             =   7.8508232635137E-03
(PID.TID 0000.0001) %MON dynstat_uvel_min             =  -3.5748233563463E-02
(PID.TID 0000.0001) %MON dynstat_uvel_mean            =  -1.0970255843522E-07
(PID.TID 0000.0001) %MON dynstat_uvel_sd              =   1.0360988407108E-03
(PID.TID 0000.0001) %MON dynstat_uvel_del2            =   1.5226187370803E-06
(PID.TID 0000.0001) %MON dynstat_vvel_max             =   2.6495685221693E-02
(PID.TID 0000.0001) %MON dynstat_vvel_min             =  -1.1676870425301E-02
(PID.TID 0000.0001) %MON dynstat_vvel_mean            =   1.5203612100622E-05
(PID.TID 0000.0001) %MON dynstat_vvel_sd              =   5.8632637719224E-04
(PID.TID 0000.0001) %MON dynstat_vvel_del2            =   1.1945341894800E-06
(PID.TID 0000.0001) %MON dynstat_wvel_max             =   1.3858339863990E-03
(PID.TID 0000.0001) %MON dynstat_wvel_min             =  -1.3335573824536E-03
(PID.TID 0000.0001) %MON dynstat_wvel_mean            =   6.9443271840905E-09
(PID.TID 0000.0001) %MON dynstat_wvel_sd              =   2.2761855936792E-05
(PID.TID 0000.0001) %MON dynstat_wvel_del2            =   9.4171812820017E-08
(PID.TID 0000.0001) %MON dynstat_theta_max            =   1.2000000000000E+00
(PID.TID 0000.0001) %MON dynstat_theta_min            =  -1.0000000000000E+00
(PID.TID 0000.0001) %MON dynstat_theta_mean           =   5.6856845198836E-01
(PID.TID 0000.0001) %MON dynstat_theta_sd             =   8.6829493265302E-01
(PID.TID 0000.0001) %MON dynstat_theta_del2           =   3.8355653029728E-06
(PID.TID 0000.0001) %MON dynstat_salt_max             =   3.4700000000000E+01
(PID.TID 0000.0001) %MON dynstat_salt_min             =   3.4000000000000E+01
(PID.TID 0000.0001) %MON dynstat_salt_mean            =   3.4499041523528E+01
(PID.TID 0000.0001) %MON dynstat_salt_sd              =   2.7625674143352E-01
(PID.TID 0000.0001) %MON dynstat_salt_del2            =   1.5158162421515E-06
(PID.TID 0000.0001) %MON advcfl_uvel_max              =   3.5748233563463E-03
(PID.TID 0000.0001) %MON advcfl_vvel_max              =   2.6495685221693E-03
(PID.TID 0000.0001) %MON advcfl_wvel_max              =   6.9291699319948E-03
(PID.TID 0000.0001) %MON advcfl_W_hf_max              =   6.9291699319948E-03
(PID.TID 0000.0001) %MON pe_b_mean                    =  -8.2949061687888E-01
(PID.TID 0000.0001) %MON ke_max                       =   4.8477526327185E-04
(PID.TID 0000.0001) %MON ke_mean                      =   6.9810549820060E-07
(PID.TID 0000.0001) %MON ke_vol                       =   4.2724718904979E+12
(PID.TID 0000.0001) // =======================================================
(PID.TID 0000.0001) // End MONITOR dynamic field statistics
(PID.TID 0000.0001) // =======================================================
(PID.TID 0000.0001) // =======================================================
(PID.TID 0000.0001) // Begin OBCS MONITOR field statistics
(PID.TID 0000.0001) // =======================================================
(PID.TID 0000.0001) %MON obc_N_vVel_max               =   1.4931041397802E-05
(PID.TID 0000.0001) %MON obc_N_vVel_min               =   1.4931041397801E-05
(PID.TID 0000.0001) %MON obc_N_vVel_mean              =   1.4931041397801E-05
(PID.TID 0000.0001) %MON obc_N_vVel_sd                =  -4.3168488217611E-24
(PID.TID 0000.0001) %MON obc_N_vVel_Int               =   9.8544873225490E+02
(PID.TID 0000.0001) // =======================================================
(PID.TID 0000.0001) // End OBCS MONITOR field statistics
(PID.TID 0000.0001) // =======================================================
 cg2d: Sum(rhs),rhsMax =   4.50629884785350E+00  2.99947685855425E+02
(PID.TID 0000.0001)      cg2d_init_res =   8.31147554081022E-06
(PID.TID 0000.0001)      cg2d_iters(min,last) =      -1      83
(PID.TID 0000.0001)      cg2d_last_res =   9.15530306710287E-12
(PID.TID 0000.0001) // =======================================================
(PID.TID 0000.0001) // Begin MONITOR dynamic field statistics
(PID.TID 0000.0001) // =======================================================
(PID.TID 0000.0001) %MON time_tsnumber                =                  1227
(PID.TID 0000.0001) %MON time_secondsf                =   1.2270000000000E+05
(PID.TID 0000.0001) %MON dynstat_eta_max              =   5.7988858022629E+00
(PID.TID 0000.0001) %MON dynstat_eta_min              =  -1.4186641255912E+01
(PID.TID 0000.0001) %MON dynstat_eta_mean             =  -2.5030627984937E+00
(PID.TID 0000.0001) %MON dynstat_eta_sd               =   4.9496585332066E+00
(PID.TID 0000.0001) %MON dynstat_eta_del2             =   2.0715751469958E-01
(PID.TID 0000.0001) %MON dynstat_uvel_max             =   7.8686189813908E-03
(PID.TID 0000.0001) %MON dynstat_uvel_min             =  -3.5831567247107E-02
(PID.TID 0000.0001) %MON dynstat_uvel_mean            =  -1.0999792000605E-07
(PID.TID 0000.0001) %MON dynstat_uvel_sd              =   1.0384963235473E-03
(PID.TID 0000.0001) %MON dynstat_uvel_del2            =   1.5262921398694E-06
(PID.TID 0000.0001) %MON dynstat_vvel_max             =   2.6545681141769E-02
(PID.TID 0000.0001) %MON dynstat_vvel_min             =  -1.1706922606189E-02
(PID.TID 0000.0001) %MON dynstat_vvel_mean            =   1.5172498046340E-05
(PID.TID 0000.0001) %MON dynstat_vvel_sd              =   5.8745366822642E-04
(PID.TID 0000.0001) %MON dynstat_vvel_del2            =   1.1970192216274E-06
(PID.TID 0000.0001) %MON dynstat_wvel_max             =   1.3888118131785E-03
(PID.TID 0000.0001) %MON dynstat_wvel_min             =  -1.3363758098831E-03
(PID.TID 0000.0001) %MON dynstat_wvel_mean            =   6.9003552875098E-09
(PID.TID 0000.0001) %MON dynstat_wvel_sd              =   2.2827867878117E-05
(PID.TID 0000.0001) %MON dynstat_wvel_del2            =   9.4456254943244E-08
(PID.TID 0000.0001) %MON dynstat_theta_max            =   1.2000000000000E+00
(PID.TID 0000.0001) %MON dynstat_theta_min            =  -1.0000000000000E+00
(PID.TID 0000.0001) %MON dynstat_theta_mean           =   5.6856731220719E-01
(PID.TID 0000.0001) %MON dynstat_theta_sd             =   8.6829431864341E-01
(PID.TID 0000.0001) %MON dynstat_theta_del2           =   3.8431111228861E-06
(PID.TID 0000.0001) %MON dynstat_salt_max             =   3.4700000000000E+01
(PID.TID 0000.0001) %MON dynstat_salt_min             =   3.4000000000000E+01
(PID.TID 0000.0001) %MON dynstat_salt_mean            =   3.4499041067334E+01
(PID.TID 0000.0001) %MON dynstat_salt_sd              =   2.7625650518098E-01
(PID.TID 0000.0001) %MON dynstat_salt_del2            =   1.5188480531492E-06
(PID.TID 0000.0001) %MON advcfl_uvel_max              =   3.5831567247107E-03
(PID.TID 0000.0001) %MON advcfl_vvel_max              =   2.6545681141769E-03
(PID.TID 0000.0001) %MON advcfl_wvel_max              =   6.9440590658923E-03
(PID.TID 0000.0001) %MON advcfl_W_hf_max              =   6.9440590658923E-03
(PID.TID 0000.0001) %MON pe_b_mean                    =  -8.2949217534415E-01
(PID.TID 0000.0001) %MON ke_max                       =   4.8741527462716E-04
(PID.TID 0000.0001) %MON ke_mean                      =   7.0120420060391E-07
(PID.TID 0000.0001) %MON ke_vol                       =   4.2724718485992E+12
(PID.TID 0000.0001) // =======================================================
(PID.TID 0000.0001) // End MONITOR dynamic field statistics
(PID.TID 0000.0001) // =======================================================
(PID.TID 0000.0001) // =======================================================
(PID.TID 0000.0001) // Begin OBCS MONITOR field statistics
(PID.TID 0000.0001) // =======================================================
(PID.TID 0000.0001) %MON obc_N_vVel_max               =   1.4904119849804E-05
(PID.TID 0000.0001) %MON obc_N_vVel_min               =   1.4904119849803E-05
(PID.TID 0000.0001) %MON obc_N_vVel_mean              =   1.4904119849803E-05
(PID.TID 0000.0001) %MON obc_N_vVel_sd                =   4.1740258326822E-12
(PID.TID 0000.0001) %MON obc_N_vVel_Int               =   9.8367191008701E+02
(PID.TID 0000.0001) // =======================================================
(PID.TID 0000.0001) // End OBCS MONITOR field statistics
(PID.TID 0000.0001) // =======================================================
 cg2d: Sum(rhs),rhsMax =   4.50631026333406E+00  2.99947760001720E+02
(PID.TID 0000.0001)      cg2d_init_res =   8.30568491728058E-06
(PID.TID 0000.0001)      cg2d_iters(min,last) =      -1      83
(PID.TID 0000.0001)      cg2d_last_res =   9.16729203139439E-12
(PID.TID 0000.0001) // =======================================================
(PID.TID 0000.0001) // Begin MONITOR dynamic field statistics
(PID.TID 0000.0001) // =======================================================
(PID.TID 0000.0001) %MON time_tsnumber                =                  1228
(PID.TID 0000.0001) %MON time_secondsf                =   1.2280000000000E+05
(PID.TID 0000.0001) %MON dynstat_eta_max              =   5.7988729184427E+00
(PID.TID 0000.0001) %MON dynstat_eta_min              =  -1.4186670999948E+01
(PID.TID 0000.0001) %MON dynstat_eta_mean             =  -2.5030697580737E+00
(PID.TID 0000.0001) %MON dynstat_eta_sd               =   4.9496612135484E+00
(PID.TID 0000.0001) %MON dynstat_eta_del2             =   2.0715755449892E-01
(PID.TID 0000.0001) %MON dynstat_uvel_max             =   7.8864459683743E-03
(PID.TID 0000.0001) %MON dynstat_uvel_min             =  -3.5915028954876E-02
(PID.TID 0000.0001) %MON dynstat_uvel_mean            =  -1.1023111706919E-07
(PID.TID 0000.0001) %MON dynstat_uvel_sd              =   1.0408987377165E-03
(PID.TID 0000.0001) %MON dynstat_uvel_del2            =   1.5299743322669E-06
(PID.TID 0000.0001) %MON dynstat_vvel_max             =   2.6595697391953E-02
(PID.TID 0000.0001) %MON dynstat_vvel_min             =  -1.1737042957947E-02
(PID.TID 0000.0001) %MON dynstat_vvel_mean            =   1.5140727840743E-05
(PID.TID 0000.0001) %MON dynstat_vvel_sd              =   5.8858306947369E-04
(PID.TID 0000.0001) %MON dynstat_vvel_del2            =   1.1995070017240E-06
(PID.TID 0000.0001) %MON dynstat_wvel_max             =   1.3917921784638E-03
(PID.TID 0000.0001) %MON dynstat_wvel_min             =  -1.3391966695924E-03
(PID.TID 0000.0001) %MON dynstat_wvel_mean            =   6.8594839804181E-09
(PID.TID 0000.0001) %MON dynstat_wvel_sd              =   2.2893347772185E-05
(PID.TID 0000.0001) %MON dynstat_wvel_del2            =   9.4741913436356E-08
(PID.TID 0000.0001) %MON dynstat_theta_max            =   1.2000000000000E+00
(PID.TID 0000.0001) %MON dynstat_theta_min            =  -1.0000000000000E+00
(PID.TID 0000.0001) %MON dynstat_theta_mean           =   5.6856617041296E-01
(PID.TID 0000.0001) %MON dynstat_theta_sd             =   8.6829370359971E-01
(PID.TID 0000.0001) %MON dynstat_theta_del2           =   3.8506793130476E-06
(PID.TID 0000.0001) %MON dynstat_salt_max             =   3.4700000000000E+01
(PID.TID 0000.0001) %MON dynstat_salt_min             =   3.4000000000000E+01
(PID.TID 0000.0001) %MON dynstat_salt_mean            =   3.4499040610336E+01
(PID.TID 0000.0001) %MON dynstat_salt_sd              =   2.7625626853367E-01
(PID.TID 0000.0001) %MON dynstat_salt_del2            =   1.5218880960843E-06
(PID.TID 0000.0001) %MON advcfl_uvel_max              =   3.5915028954876E-03
(PID.TID 0000.0001) %MON advcfl_vvel_max              =   2.6595697391953E-03
(PID.TID 0000.0001) %MON advcfl_wvel_max              =   6.9589608923189E-03
(PID.TID 0000.0001) %MON advcfl_W_hf_max              =   6.9589608923189E-03
(PID.TID 0000.0001) %MON pe_b_mean                    =  -8.2949371982468E-01
(PID.TID 0000.0001) %MON ke_max                       =   4.9006777693062E-04
(PID.TID 0000.0001) %MON ke_mean                      =   7.0431607209219E-07
(PID.TID 0000.0001) %MON ke_vol                       =   4.2724718069769E+12
(PID.TID 0000.0001) // =======================================================
(PID.TID 0000.0001) // End MONITOR dynamic field statistics
(PID.TID 0000.0001) // =======================================================
(PID.TID 0000.0001) // =======================================================
(PID.TID 0000.0001) // Begin OBCS MONITOR field statistics
(PID.TID 0000.0001) // =======================================================
(PID.TID 0000.0001) %MON obc_N_vVel_max               =   1.4876318514961E-05
(PID.TID 0000.0001) %MON obc_N_vVel_min               =   1.4876318514961E-05
(PID.TID 0000.0001) %MON obc_N_vVel_mean              =   1.4876318514961E-05
(PID.TID 0000.0001) %MON obc_N_vVel_sd                =  -1.8947605906293E-23
(PID.TID 0000.0001) %MON obc_N_vVel_Int               =   9.8183702198745E+02
(PID.TID 0000.0001) // =======================================================
(PID.TID 0000.0001) // End OBCS MONITOR field statistics
(PID.TID 0000.0001) // =======================================================
 cg2d: Sum(rhs),rhsMax =   4.50632160220513E+00  2.99947833490397E+02
(PID.TID 0000.0001)      cg2d_init_res =   8.30108300419878E-06
(PID.TID 0000.0001)      cg2d_iters(min,last) =      -1      83
(PID.TID 0000.0001)      cg2d_last_res =   9.17772991406627E-12
(PID.TID 0000.0001) // =======================================================
(PID.TID 0000.0001) // Begin MONITOR dynamic field statistics
(PID.TID 0000.0001) // =======================================================
(PID.TID 0000.0001) %MON time_tsnumber                =                  1229
(PID.TID 0000.0001) %MON time_secondsf                =   1.2290000000000E+05
(PID.TID 0000.0001) %MON dynstat_eta_max              =   5.7988601137967E+00
(PID.TID 0000.0001) %MON dynstat_eta_min              =  -1.4186700715873E+01
(PID.TID 0000.0001) %MON dynstat_eta_mean             =  -2.5030766696156E+00
(PID.TID 0000.0001) %MON dynstat_eta_sd               =   4.9496638788223E+00
(PID.TID 0000.0001) %MON dynstat_eta_del2             =   2.0715759435189E-01
(PID.TID 0000.0001) %MON dynstat_uvel_max             =   7.9043042281590E-03
(PID.TID 0000.0001) %MON dynstat_uvel_min             =  -3.5998618789130E-02
(PID.TID 0000.0001) %MON dynstat_uvel_mean            =  -1.1038296515516E-07
(PID.TID 0000.0001) %MON dynstat_uvel_sd              =   1.0433060972110E-03
(PID.TID 0000.0001) %MON dynstat_uvel_del2            =   1.5336653503922E-06
(PID.TID 0000.0001) %MON dynstat_vvel_max             =   2.6645733823066E-02
(PID.TID 0000.0001) %MON dynstat_vvel_min             =  -1.1767231482352E-02
(PID.TID 0000.0001) %MON dynstat_vvel_mean            =   1.5108821620090E-05
(PID.TID 0000.0001) %MON dynstat_vvel_sd              =   5.8971429817882E-04
(PID.TID 0000.0001) %MON dynstat_vvel_del2            =   1.2019952928328E-06
(PID.TID 0000.0001) %MON dynstat_wvel_max             =   1.3947750696323E-03
(PID.TID 0000.0001) %MON dynstat_wvel_min             =  -1.3420199581471E-03
(PID.TID 0000.0001) %MON dynstat_wvel_mean            =   6.8223692536590E-09
(PID.TID 0000.0001) %MON dynstat_wvel_sd              =   2.2956430749868E-05
(PID.TID 0000.0001) %MON dynstat_wvel_del2            =   9.5018758852842E-08
(PID.TID 0000.0001) %MON dynstat_theta_max            =   1.2000000000000E+00
(PID.TID 0000.0001) %MON dynstat_theta_min            =  -1.0000000000000E+00
(PID.TID 0000.0001) %MON dynstat_theta_mean           =   5.6856502660232E-01
(PID.TID 0000.0001) %MON dynstat_theta_sd             =   8.6829308752364E-01
(PID.TID 0000.0001) %MON dynstat_theta_del2           =   3.8582726744312E-06
(PID.TID 0000.0001) %MON dynstat_salt_max             =   3.4700000000000E+01
(PID.TID 0000.0001) %MON dynstat_salt_min             =   3.4000000000000E+01
(PID.TID 0000.0001) %MON dynstat_salt_mean            =   3.4499040152533E+01
(PID.TID 0000.0001) %MON dynstat_salt_sd              =   2.7625603149216E-01
(PID.TID 0000.0001) %MON dynstat_salt_del2            =   1.5249369032248E-06
(PID.TID 0000.0001) %MON advcfl_uvel_max              =   3.5998618789130E-03
(PID.TID 0000.0001) %MON advcfl_vvel_max              =   2.6645733823066E-03
(PID.TID 0000.0001) %MON advcfl_wvel_max              =   6.9738753481616E-03
(PID.TID 0000.0001) %MON advcfl_W_hf_max              =   6.9738753481616E-03
(PID.TID 0000.0001) %MON pe_b_mean                    =  -8.2949525031349E-01
(PID.TID 0000.0001) %MON ke_max                       =   4.9273281520330E-04
(PID.TID 0000.0001) %MON ke_mean                      =   7.0744101009632E-07
(PID.TID 0000.0001) %MON ke_vol                       =   4.2724717656370E+12
(PID.TID 0000.0001) // =======================================================
(PID.TID 0000.0001) // End MONITOR dynamic field statistics
(PID.TID 0000.0001) // =======================================================
(PID.TID 0000.0001) // =======================================================
(PID.TID 0000.0001) // Begin OBCS MONITOR field statistics
(PID.TID 0000.0001) // =======================================================
(PID.TID 0000.0001) %MON obc_N_vVel_max               =   1.4848092470859E-05
(PID.TID 0000.0001) %MON obc_N_vVel_min               =   1.4848092470859E-05
(PID.TID 0000.0001) %MON obc_N_vVel_mean              =   1.4848092470859E-05
(PID.TID 0000.0001) %MON obc_N_vVel_sd                =  -7.2636797539813E-24
(PID.TID 0000.0001) %MON obc_N_vVel_Int               =   9.7997410307670E+02
(PID.TID 0000.0001) // =======================================================
(PID.TID 0000.0001) // End OBCS MONITOR field statistics
(PID.TID 0000.0001) // =======================================================
 cg2d: Sum(rhs),rhsMax =   4.50633286381042E+00  2.99947906366451E+02
(PID.TID 0000.0001)      cg2d_init_res =   8.29780324894604E-06
(PID.TID 0000.0001)      cg2d_iters(min,last) =      -1      83
(PID.TID 0000.0001)      cg2d_last_res =   9.18673278862767E-12
(PID.TID 0000.0001) // =======================================================
(PID.TID 0000.0001) // Begin MONITOR dynamic field statistics
(PID.TID 0000.0001) // =======================================================
(PID.TID 0000.0001) %MON time_tsnumber                =                  1230
(PID.TID 0000.0001) %MON time_secondsf                =   1.2300000000000E+05
(PID.TID 0000.0001) %MON dynstat_eta_max              =   5.7988473886509E+00
(PID.TID 0000.0001) %MON dynstat_eta_min              =  -1.4186730404711E+01
(PID.TID 0000.0001) %MON dynstat_eta_mean             =  -2.5030835331301E+00
(PID.TID 0000.0001) %MON dynstat_eta_sd               =   4.9496665294719E+00
(PID.TID 0000.0001) %MON dynstat_eta_del2             =   2.0715763425940E-01
(PID.TID 0000.0001) %MON dynstat_uvel_max             =   7.9221937615266E-03
(PID.TID 0000.0001) %MON dynstat_uvel_min             =  -3.6082336866863E-02
(PID.TID 0000.0001) %MON dynstat_uvel_mean            =  -1.1044795949006E-07
(PID.TID 0000.0001) %MON dynstat_uvel_sd              =   1.0457184162705E-03
(PID.TID 0000.0001) %MON dynstat_uvel_del2            =   1.5373652315316E-06
(PID.TID 0000.0001) %MON dynstat_vvel_max             =   2.6695790297042E-02
(PID.TID 0000.0001) %MON dynstat_vvel_min             =  -1.1797488195343E-02
(PID.TID 0000.0001) %MON dynstat_vvel_mean            =   1.5077300192488E-05
(PID.TID 0000.0001) %MON dynstat_vvel_sd              =   5.9084710325026E-04
(PID.TID 0000.0001) %MON dynstat_vvel_del2            =   1.2044821709495E-06
(PID.TID 0000.0001) %MON dynstat_wvel_max             =   1.3977604737285E-03
(PID.TID 0000.0001) %MON dynstat_wvel_min             =  -1.3448456710060E-03
(PID.TID 0000.0001) %MON dynstat_wvel_mean            =   6.7896142443558E-09
(PID.TID 0000.0001) %MON dynstat_wvel_sd              =   2.3015454212117E-05
(PID.TID 0000.0001) %MON dynstat_wvel_del2            =   9.5277512614922E-08
(PID.TID 0000.0001) %MON dynstat_theta_max            =   1.2000000000000E+00
(PID.TID 0000.0001) %MON dynstat_theta_min            =  -1.0000000000000E+00
(PID.TID 0000.0001) %MON dynstat_theta_mean           =   5.6856388077219E-01
(PID.TID 0000.0001) %MON dynstat_theta_sd             =   8.6829247041783E-01
(PID.TID 0000.0001) %MON dynstat_theta_del2           =   3.8658930704081E-06
(PID.TID 0000.0001) %MON dynstat_salt_max             =   3.4700000000000E+01
(PID.TID 0000.0001) %MON dynstat_salt_min             =   3.4000000000000E+01
(PID.TID 0000.0001) %MON dynstat_salt_mean            =   3.4499039693922E+01
(PID.TID 0000.0001) %MON dynstat_salt_sd              =   2.7625579405729E-01
(PID.TID 0000.0001) %MON dynstat_salt_del2            =   1.5279948057799E-06
(PID.TID 0000.0001) %MON advcfl_uvel_max              =   3.6082336866863E-03
(PID.TID 0000.0001) %MON advcfl_vvel_max              =   2.6695790297042E-03
(PID.TID 0000.0001) %MON advcfl_wvel_max              =   6.9888023686425E-03
(PID.TID 0000.0001) %MON advcfl_W_hf_max              =   6.9888023686425E-03
(PID.TID 0000.0001) %MON pe_b_mean                    =  -8.2949676693553E-01
(PID.TID 0000.0001) %MON ke_max                       =   4.9541043537443E-04
(PID.TID 0000.0001) %MON ke_mean                      =   7.1057892988790E-07
(PID.TID 0000.0001) %MON ke_vol                       =   4.2724717245825E+12
(PID.TID 0000.0001) // =======================================================
(PID.TID 0000.0001) // End MONITOR dynamic field statistics
(PID.TID 0000.0001) // =======================================================
(PID.TID 0000.0001) // =======================================================
(PID.TID 0000.0001) // Begin OBCS MONITOR field statistics
(PID.TID 0000.0001) // =======================================================
(PID.TID 0000.0001) %MON obc_N_vVel_max               =   1.4819901694883E-05
(PID.TID 0000.0001) %MON obc_N_vVel_min               =   1.4819901694882E-05
(PID.TID 0000.0001) %MON obc_N_vVel_mean              =   1.4819901694883E-05
(PID.TID 0000.0001) %MON obc_N_vVel_sd                =  -1.2149215246873E-23
(PID.TID 0000.0001) %MON obc_N_vVel_Int               =   9.7811351186228E+02
(PID.TID 0000.0001) // =======================================================
(PID.TID 0000.0001) // End OBCS MONITOR field statistics
(PID.TID 0000.0001) // =======================================================
 cg2d: Sum(rhs),rhsMax =   4.50634404828432E+00  2.99947978683126E+02
(PID.TID 0000.0001)      cg2d_init_res =   8.29596397223489E-06
(PID.TID 0000.0001)      cg2d_iters(min,last) =      -1      83
(PID.TID 0000.0001)      cg2d_last_res =   9.19477498958415E-12
(PID.TID 0000.0001) // =======================================================
(PID.TID 0000.0001) // Begin MONITOR dynamic field statistics
(PID.TID 0000.0001) // =======================================================
(PID.TID 0000.0001) %MON time_tsnumber                =                  1231
(PID.TID 0000.0001) %MON time_secondsf                =   1.2310000000000E+05
(PID.TID 0000.0001) %MON dynstat_eta_max              =   5.7988347424034E+00
(PID.TID 0000.0001) %MON dynstat_eta_min              =  -1.4186760068031E+01
(PID.TID 0000.0001) %MON dynstat_eta_mean             =  -2.5030903491363E+00
(PID.TID 0000.0001) %MON dynstat_eta_sd               =   4.9496691660980E+00
(PID.TID 0000.0001) %MON dynstat_eta_del2             =   2.0715767422241E-01
(PID.TID 0000.0001) %MON dynstat_uvel_max             =   7.9401145670204E-03
(PID.TID 0000.0001) %MON dynstat_uvel_min             =  -3.6166183318533E-02
(PID.TID 0000.0001) %MON dynstat_uvel_mean            =  -1.1043313272935E-07
(PID.TID 0000.0001) %MON dynstat_uvel_sd              =   1.0481357093167E-03
(PID.TID 0000.0001) %MON dynstat_uvel_del2            =   1.5410740135486E-06
(PID.TID 0000.0001) %MON dynstat_vvel_max             =   2.6745866683789E-02
(PID.TID 0000.0001) %MON dynstat_vvel_min             =  -1.1827813127564E-02
(PID.TID 0000.0001) %MON dynstat_vvel_mean            =   1.5046676487177E-05
(PID.TID 0000.0001) %MON dynstat_vvel_sd              =   5.9198128270055E-04
(PID.TID 0000.0001) %MON dynstat_vvel_del2            =   1.2069661710256E-06
(PID.TID 0000.0001) %MON dynstat_wvel_max             =   1.4007483774810E-03
(PID.TID 0000.0001) %MON dynstat_wvel_min             =  -1.3476738023829E-03
(PID.TID 0000.0001) %MON dynstat_wvel_mean            =   6.7617568779880E-09
(PID.TID 0000.0001) %MON dynstat_wvel_sd              =   2.3069064051798E-05
(PID.TID 0000.0001) %MON dynstat_wvel_del2            =   9.5510287654024E-08
(PID.TID 0000.0001) %MON dynstat_theta_max            =   1.2000000000000E+00
(PID.TID 0000.0001) %MON dynstat_theta_min            =  -1.0000000000000E+00
(PID.TID 0000.0001) %MON dynstat_theta_mean           =   5.6856273291970E-01
(PID.TID 0000.0001) %MON dynstat_theta_sd             =   8.6829185228535E-01
(PID.TID 0000.0001) %MON dynstat_theta_del2           =   3.8735417992539E-06
(PID.TID 0000.0001) %MON dynstat_salt_max             =   3.4700000000000E+01
(PID.TID 0000.0001) %MON dynstat_salt_min             =   3.4000000000000E+01
(PID.TID 0000.0001) %MON dynstat_salt_mean            =   3.4499039234504E+01
(PID.TID 0000.0001) %MON dynstat_salt_sd              =   2.7625555622987E-01
(PID.TID 0000.0001) %MON dynstat_salt_del2            =   1.5310620206158E-06
(PID.TID 0000.0001) %MON advcfl_uvel_max              =   3.6166183318533E-03
(PID.TID 0000.0001) %MON advcfl_vvel_max              =   2.6745866683789E-03
(PID.TID 0000.0001) %MON advcfl_wvel_max              =   7.0037418874051E-03
(PID.TID 0000.0001) %MON advcfl_W_hf_max              =   7.0037418874051E-03
(PID.TID 0000.0001) %MON pe_b_mean                    =  -8.2949826994519E-01
(PID.TID 0000.0001) %MON ke_max                       =   4.9810068423610E-04
(PID.TID 0000.0001) %MON ke_mean                      =   7.1372977488839E-07
(PID.TID 0000.0001) %MON ke_vol                       =   4.2724716838132E+12
(PID.TID 0000.0001) // =======================================================
(PID.TID 0000.0001) // End MONITOR dynamic field statistics
(PID.TID 0000.0001) // =======================================================
(PID.TID 0000.0001) // =======================================================
(PID.TID 0000.0001) // Begin OBCS MONITOR field statistics
(PID.TID 0000.0001) // =======================================================
(PID.TID 0000.0001) %MON obc_N_vVel_max               =   1.4792203681642E-05
(PID.TID 0000.0001) %MON obc_N_vVel_min               =   1.4792203681642E-05
(PID.TID 0000.0001) %MON obc_N_vVel_mean              =   1.4792203681642E-05
(PID.TID 0000.0001) %MON obc_N_vVel_sd                =  -1.8017027717171E-23
(PID.TID 0000.0001) %MON obc_N_vVel_Int               =   9.7628544298839E+02
(PID.TID 0000.0001) // =======================================================
(PID.TID 0000.0001) // End OBCS MONITOR field statistics
(PID.TID 0000.0001) // =======================================================
 cg2d: Sum(rhs),rhsMax =   4.50635515654898E+00  2.99948050500786E+02
(PID.TID 0000.0001)      cg2d_init_res =   8.29567709359402E-06
(PID.TID 0000.0001)      cg2d_iters(min,last) =      -1      83
(PID.TID 0000.0001)      cg2d_last_res =   9.20254241339245E-12
(PID.TID 0000.0001) // =======================================================
(PID.TID 0000.0001) // Begin MONITOR dynamic field statistics
(PID.TID 0000.0001) // =======================================================
(PID.TID 0000.0001) %MON time_tsnumber                =                  1232
(PID.TID 0000.0001) %MON time_secondsf                =   1.2320000000000E+05
(PID.TID 0000.0001) %MON dynstat_eta_max              =   5.7988221734351E+00
(PID.TID 0000.0001) %MON dynstat_eta_min              =  -1.4186789707961E+01
(PID.TID 0000.0001) %MON dynstat_eta_mean             =  -2.5030971186501E+00
(PID.TID 0000.0001) %MON dynstat_eta_sd               =   4.9496717894482E+00
(PID.TID 0000.0001) %MON dynstat_eta_del2             =   2.0715771424206E-01
(PID.TID 0000.0001) %MON dynstat_uvel_max             =   7.9580666418053E-03
(PID.TID 0000.0001) %MON dynstat_uvel_min             =  -3.6250158284743E-02
(PID.TID 0000.0001) %MON dynstat_uvel_mean            =  -1.1035563947409E-07
(PID.TID 0000.0001) %MON dynstat_uvel_sd              =   1.0505579908708E-03
(PID.TID 0000.0001) %MON dynstat_uvel_del2            =   1.5447917345988E-06
(PID.TID 0000.0001) %MON dynstat_vvel_max             =   2.6795962857494E-02
(PID.TID 0000.0001) %MON dynstat_vvel_min             =  -1.1858206324066E-02
(PID.TID 0000.0001) %MON dynstat_vvel_mean            =   1.5017447172997E-05
(PID.TID 0000.0001) %MON dynstat_vvel_sd              =   5.9311669746376E-04
(PID.TID 0000.0001) %MON dynstat_vvel_del2            =   1.2094463986346E-06
(PID.TID 0000.0001) %MON dynstat_wvel_max             =   1.4037387673369E-03
(PID.TID 0000.0001) %MON dynstat_wvel_min             =  -1.3505043454295E-03
(PID.TID 0000.0001) %MON dynstat_wvel_mean            =   6.7392598013305E-09
(PID.TID 0000.0001) %MON dynstat_wvel_sd              =   2.3116298070511E-05
(PID.TID 0000.0001) %MON dynstat_wvel_del2            =   9.5711119670312E-08
(PID.TID 0000.0001) %MON dynstat_theta_max            =   1.2000000000000E+00
(PID.TID 0000.0001) %MON dynstat_theta_min            =  -1.0000000000000E+00
(PID.TID 0000.0001) %MON dynstat_theta_mean           =   5.6856158304216E-01
(PID.TID 0000.0001) %MON dynstat_theta_sd             =   8.6829123313006E-01
(PID.TID 0000.0001) %MON dynstat_theta_del2           =   3.8812194837943E-06
(PID.TID 0000.0001) %MON dynstat_salt_max             =   3.4700000000000E+01
(PID.TID 0000.0001) %MON dynstat_salt_min             =   3.4000000000000E+01
(PID.TID 0000.0001) %MON dynstat_salt_mean            =   3.4499038774276E+01
(PID.TID 0000.0001) %MON dynstat_salt_sd              =   2.7625531801139E-01
(PID.TID 0000.0001) %MON dynstat_salt_del2            =   1.5341388082897E-06
(PID.TID 0000.0001) %MON advcfl_uvel_max              =   3.6250158284743E-03
(PID.TID 0000.0001) %MON advcfl_vvel_max              =   2.6795962857494E-03
(PID.TID 0000.0001) %MON advcfl_wvel_max              =   7.0186938366847E-03
(PID.TID 0000.0001) %MON advcfl_W_hf_max              =   7.0186938366847E-03
(PID.TID 0000.0001) %MON pe_b_mean                    =  -8.2949975972160E-01
(PID.TID 0000.0001) %MON ke_max                       =   5.0080360927985E-04
(PID.TID 0000.0001) %MON ke_mean                      =   7.1689352493449E-07
(PID.TID 0000.0001) %MON ke_vol                       =   4.2724716433261E+12
(PID.TID 0000.0001) // =======================================================
(PID.TID 0000.0001) // End MONITOR dynamic field statistics
(PID.TID 0000.0001) // =======================================================
(PID.TID 0000.0001) // =======================================================
(PID.TID 0000.0001) // Begin OBCS MONITOR field statistics
(PID.TID 0000.0001) // =======================================================
(PID.TID 0000.0001) %MON obc_N_vVel_max               =   1.4765446106177E-05
(PID.TID 0000.0001) %MON obc_N_vVel_min               =   1.4765446106177E-05
(PID.TID 0000.0001) %MON obc_N_vVel_mean              =   1.4765446106177E-05
(PID.TID 0000.0001) %MON obc_N_vVel_sd                =   2.5011104298756E-12
(PID.TID 0000.0001) %MON obc_N_vVel_Int               =   9.7451944300767E+02
(PID.TID 0000.0001) // =======================================================
(PID.TID 0000.0001) // End OBCS MONITOR field statistics
(PID.TID 0000.0001) // =======================================================
 cg2d: Sum(rhs),rhsMax =   4.50636619030212E+00  2.99948121885338E+02
(PID.TID 0000.0001)      cg2d_init_res =   8.29704828886761E-06
(PID.TID 0000.0001)      cg2d_iters(min,last) =      -1      83
(PID.TID 0000.0001)      cg2d_last_res =   9.21076875232226E-12
(PID.TID 0000.0001) // =======================================================
(PID.TID 0000.0001) // Begin MONITOR dynamic field statistics
(PID.TID 0000.0001) // =======================================================
(PID.TID 0000.0001) %MON time_tsnumber                =                  1233
(PID.TID 0000.0001) %MON time_secondsf                =   1.2330000000000E+05
(PID.TID 0000.0001) %MON dynstat_eta_max              =   5.7988096791266E+00
(PID.TID 0000.0001) %MON dynstat_eta_min              =  -1.4186819327183E+01
(PID.TID 0000.0001) %MON dynstat_eta_mean             =  -2.5031038431643E+00
(PID.TID 0000.0001) %MON dynstat_eta_sd               =   4.9496744004035E+00
(PID.TID 0000.0001) %MON dynstat_eta_del2             =   2.0715775431966E-01
(PID.TID 0000.0001) %MON dynstat_uvel_max             =   7.9760499834158E-03
(PID.TID 0000.0001) %MON dynstat_uvel_min             =  -3.6334261911476E-02
(PID.TID 0000.0001) %MON dynstat_uvel_mean            =  -1.1023951466931E-07
(PID.TID 0000.0001) %MON dynstat_uvel_sd              =   1.0529852754517E-03
(PID.TID 0000.0001) %MON dynstat_uvel_del2            =   1.5485184335249E-06
(PID.TID 0000.0001) %MON dynstat_vvel_max             =   2.6846078693138E-02
(PID.TID 0000.0001) %MON dynstat_vvel_min             =  -1.1888667842701E-02
(PID.TID 0000.0001) %MON dynstat_vvel_mean            =   1.4990084553079E-05
(PID.TID 0000.0001) %MON dynstat_vvel_sd              =   5.9425328066927E-04
(PID.TID 0000.0001) %MON dynstat_vvel_del2            =   1.2119225985816E-06
(PID.TID 0000.0001) %MON dynstat_wvel_max             =   1.4067316295414E-03
(PID.TID 0000.0001) %MON dynstat_wvel_min             =  -1.3533372924124E-03
(PID.TID 0000.0001) %MON dynstat_wvel_mean            =   6.7224965991801E-09
(PID.TID 0000.0001) %MON dynstat_wvel_sd              =   2.3156641920597E-05
(PID.TID 0000.0001) %MON dynstat_wvel_del2            =   9.5876355410314E-08
(PID.TID 0000.0001) %MON dynstat_theta_max            =   1.2000000000000E+00
(PID.TID 0000.0001) %MON dynstat_theta_min            =  -1.0000000000000E+00
(PID.TID 0000.0001) %MON dynstat_theta_mean           =   5.6856043113689E-01
(PID.TID 0000.0001) %MON dynstat_theta_sd             =   8.6829061295207E-01
(PID.TID 0000.0001) %MON dynstat_theta_del2           =   3.8889260009671E-06
(PID.TID 0000.0001) %MON dynstat_salt_max             =   3.4700000000000E+01
(PID.TID 0000.0001) %MON dynstat_salt_min             =   3.4000000000000E+01
(PID.TID 0000.0001) %MON dynstat_salt_mean            =   3.4499038313238E+01
(PID.TID 0000.0001) %MON dynstat_salt_sd              =   2.7625507940173E-01
(PID.TID 0000.0001) %MON dynstat_salt_del2            =   1.5372252347988E-06
(PID.TID 0000.0001) %MON advcfl_uvel_max              =   3.6334261911476E-03
(PID.TID 0000.0001) %MON advcfl_vvel_max              =   2.6846078693138E-03
(PID.TID 0000.0001) %MON advcfl_wvel_max              =   7.0336581477072E-03
(PID.TID 0000.0001) %MON advcfl_W_hf_max              =   7.0336581477072E-03
(PID.TID 0000.0001) %MON pe_b_mean                    =  -8.2950123676165E-01
(PID.TID 0000.0001) %MON ke_max                       =   5.0351925845788E-04
(PID.TID 0000.0001) %MON ke_mean                      =   7.2007020192769E-07
(PID.TID 0000.0001) %MON ke_vol                       =   4.2724716031152E+12
(PID.TID 0000.0001) // =======================================================
(PID.TID 0000.0001) // End MONITOR dynamic field statistics
(PID.TID 0000.0001) // =======================================================
(PID.TID 0000.0001) // =======================================================
(PID.TID 0000.0001) // Begin OBCS MONITOR field statistics
(PID.TID 0000.0001) // =======================================================
(PID.TID 0000.0001) %MON obc_N_vVel_max               =   1.4740059922510E-05
(PID.TID 0000.0001) %MON obc_N_vVel_min               =   1.4740059922510E-05
(PID.TID 0000.0001) %MON obc_N_vVel_mean              =   1.4740059922510E-05
(PID.TID 0000.0001) %MON obc_N_vVel_sd                =  -1.6957202557337E-23
(PID.TID 0000.0001) %MON obc_N_vVel_Int               =   9.7284395488567E+02
(PID.TID 0000.0001) // =======================================================
(PID.TID 0000.0001) // End OBCS MONITOR field statistics
(PID.TID 0000.0001) // =======================================================
 cg2d: Sum(rhs),rhsMax =   4.50637715198722E+00  2.99948192907258E+02
(PID.TID 0000.0001)      cg2d_init_res =   8.30015629373690E-06
(PID.TID 0000.0001)      cg2d_iters(min,last) =      -1      83
(PID.TID 0000.0001)      cg2d_last_res =   9.22017248417432E-12
(PID.TID 0000.0001) // =======================================================
(PID.TID 0000.0001) // Begin MONITOR dynamic field statistics
(PID.TID 0000.0001) // =======================================================
(PID.TID 0000.0001) %MON time_tsnumber                =                  1234
(PID.TID 0000.0001) %MON time_secondsf                =   1.2340000000000E+05
(PID.TID 0000.0001) %MON dynstat_eta_max              =   5.7987972558451E+00
(PID.TID 0000.0001) %MON dynstat_eta_min              =  -1.4186848928903E+01
(PID.TID 0000.0001) %MON dynstat_eta_mean             =  -2.5031105246243E+00
(PID.TID 0000.0001) %MON dynstat_eta_sd               =   4.9496769999658E+00
(PID.TID 0000.0001) %MON dynstat_eta_del2             =   2.0715779445674E-01
(PID.TID 0000.0001) %MON dynstat_uvel_max             =   7.9940645913865E-03
(PID.TID 0000.0001) %MON dynstat_uvel_min             =  -3.6418494344839E-02
(PID.TID 0000.0001) %MON dynstat_uvel_mean            =  -1.1011207566730E-07
(PID.TID 0000.0001) %MON dynstat_uvel_sd              =   1.0554175775299E-03
(PID.TID 0000.0001) %MON dynstat_uvel_del2            =   1.5522541510881E-06
(PID.TID 0000.0001) %MON dynstat_vvel_max             =   2.6896214062460E-02
(PID.TID 0000.0001) %MON dynstat_vvel_min             =  -1.1919197752444E-02
(PID.TID 0000.0001) %MON dynstat_vvel_mean            =   1.4965028823704E-05
(PID.TID 0000.0001) %MON dynstat_vvel_sd              =   5.9539104190041E-04
(PID.TID 0000.0001) %MON dynstat_vvel_del2            =   1.2143951792909E-06
(PID.TID 0000.0001) %MON dynstat_wvel_max             =   1.4097269501783E-03
(PID.TID 0000.0001) %MON dynstat_wvel_min             =  -1.3561726348907E-03
(PID.TID 0000.0001) %MON dynstat_wvel_mean            =   6.7117432540276E-09
(PID.TID 0000.0001) %MON dynstat_wvel_sd              =   2.3190054765131E-05
(PID.TID 0000.0001) %MON dynstat_wvel_del2            =   9.6004876230394E-08
(PID.TID 0000.0001) %MON dynstat_theta_max            =   1.2000000000000E+00
(PID.TID 0000.0001) %MON dynstat_theta_min            =  -1.0000000000000E+00
(PID.TID 0000.0001) %MON dynstat_theta_mean           =   5.6855927720140E-01
(PID.TID 0000.0001) %MON dynstat_theta_sd             =   8.6828999175036E-01
(PID.TID 0000.0001) %MON dynstat_theta_del2           =   3.8966604578424E-06
(PID.TID 0000.0001) %MON dynstat_salt_max             =   3.4700000000000E+01
(PID.TID 0000.0001) %MON dynstat_salt_min             =   3.4000000000000E+01
(PID.TID 0000.0001) %MON dynstat_salt_mean            =   3.4499037851389E+01
(PID.TID 0000.0001) %MON dynstat_salt_sd              =   2.7625484040061E-01
(PID.TID 0000.0001) %MON dynstat_salt_del2            =   1.5403208423994E-06
(PID.TID 0000.0001) %MON advcfl_uvel_max              =   3.6418494344839E-03
(PID.TID 0000.0001) %MON advcfl_vvel_max              =   2.6896214062460E-03
(PID.TID 0000.0001) %MON advcfl_wvel_max              =   7.0486347508913E-03
(PID.TID 0000.0001) %MON advcfl_W_hf_max              =   7.0486347508913E-03
(PID.TID 0000.0001) %MON pe_b_mean                    =  -8.2950270167159E-01
(PID.TID 0000.0001) %MON ke_max                       =   5.0624767991418E-04
(PID.TID 0000.0001) %MON ke_mean                      =   7.2325987262749E-07
(PID.TID 0000.0001) %MON ke_vol                       =   4.2724715631716E+12
(PID.TID 0000.0001) // =======================================================
(PID.TID 0000.0001) // End MONITOR dynamic field statistics
(PID.TID 0000.0001) // =======================================================
(PID.TID 0000.0001) // =======================================================
(PID.TID 0000.0001) // Begin OBCS MONITOR field statistics
(PID.TID 0000.0001) // =======================================================
(PID.TID 0000.0001) %MON obc_N_vVel_max               =   1.4716452374808E-05
(PID.TID 0000.0001) %MON obc_N_vVel_min               =   1.4716452374808E-05
(PID.TID 0000.0001) %MON obc_N_vVel_mean              =   1.4716452374808E-05
(PID.TID 0000.0001) %MON obc_N_vVel_sd                =   3.8385094322016E-12
(PID.TID 0000.0001) %MON obc_N_vVel_Int               =   9.7128585673733E+02
(PID.TID 0000.0001) // =======================================================
(PID.TID 0000.0001) // End OBCS MONITOR field statistics
(PID.TID 0000.0001) // =======================================================
 cg2d: Sum(rhs),rhsMax =   4.50638804474086E+00  2.99948263641046E+02
(PID.TID 0000.0001)      cg2d_init_res =   8.30507343709252E-06
(PID.TID 0000.0001)      cg2d_iters(min,last) =      -1      83
(PID.TID 0000.0001)      cg2d_last_res =   9.23139285612531E-12
(PID.TID 0000.0001) // =======================================================
(PID.TID 0000.0001) // Begin MONITOR dynamic field statistics
(PID.TID 0000.0001) // =======================================================
(PID.TID 0000.0001) %MON time_tsnumber                =                  1235
(PID.TID 0000.0001) %MON time_secondsf                =   1.2350000000000E+05
(PID.TID 0000.0001) %MON dynstat_eta_max              =   5.7987848990262E+00
(PID.TID 0000.0001) %MON dynstat_eta_min              =  -1.4186878516772E+01
(PID.TID 0000.0001) %MON dynstat_eta_mean             =  -2.5031171653940E+00
(PID.TID 0000.0001) %MON dynstat_eta_sd               =   4.9496795892294E+00
(PID.TID 0000.0001) %MON dynstat_eta_del2             =   2.0715783465439E-01
(PID.TID 0000.0001) %MON dynstat_uvel_max             =   8.0121104688757E-03
(PID.TID 0000.0001) %MON dynstat_uvel_min             =  -3.6502855726302E-02
(PID.TID 0000.0001) %MON dynstat_uvel_mean            =  -1.1000046496651E-07
(PID.TID 0000.0001) %MON dynstat_uvel_sd              =   1.0578549114435E-03
(PID.TID 0000.0001) %MON dynstat_uvel_del2            =   1.5559989259261E-06
(PID.TID 0000.0001) %MON dynstat_vvel_max             =   2.6946368829963E-02
(PID.TID 0000.0001) %MON dynstat_vvel_min             =  -1.1949796131507E-02
(PID.TID 0000.0001) %MON dynstat_vvel_mean            =   1.4942680854684E-05
(PID.TID 0000.0001) %MON dynstat_vvel_sd              =   5.9653006609311E-04
(PID.TID 0000.0001) %MON dynstat_vvel_del2            =   1.2168651847719E-06
(PID.TID 0000.0001) %MON dynstat_wvel_max             =   1.4127247152602E-03
(PID.TID 0000.0001) %MON dynstat_wvel_min             =  -1.3590103639714E-03
(PID.TID 0000.0001) %MON dynstat_wvel_mean            =   6.7071727915552E-09
(PID.TID 0000.0001) %MON dynstat_wvel_sd              =   2.3216963690164E-05
(PID.TID 0000.0001) %MON dynstat_wvel_del2            =   9.6098144796012E-08
(PID.TID 0000.0001) %MON dynstat_theta_max            =   1.2000000000000E+00
(PID.TID 0000.0001) %MON dynstat_theta_min            =  -1.0000000000000E+00
(PID.TID 0000.0001) %MON dynstat_theta_mean           =   5.6855812123334E-01
(PID.TID 0000.0001) %MON dynstat_theta_sd             =   8.6828936952329E-01
(PID.TID 0000.0001) %MON dynstat_theta_del2           =   3.9044212131467E-06
(PID.TID 0000.0001) %MON dynstat_salt_max             =   3.4700000000000E+01
(PID.TID 0000.0001) %MON dynstat_salt_min             =   3.4000000000000E+01
(PID.TID 0000.0001) %MON dynstat_salt_mean            =   3.4499037388727E+01
(PID.TID 0000.0001) %MON dynstat_salt_sd              =   2.7625460100752E-01
(PID.TID 0000.0001) %MON dynstat_salt_del2            =   1.5434251480725E-06
(PID.TID 0000.0001) %MON advcfl_uvel_max              =   3.6502855726302E-03
(PID.TID 0000.0001) %MON advcfl_vvel_max              =   2.6946368829963E-03
(PID.TID 0000.0001) %MON advcfl_wvel_max              =   7.0636235763008E-03
(PID.TID 0000.0001) %MON advcfl_W_hf_max              =   7.0636235763008E-03
(PID.TID 0000.0001) %MON pe_b_mean                    =  -8.2950415515647E-01
(PID.TID 0000.0001) %MON ke_max                       =   5.0898892172602E-04
(PID.TID 0000.0001) %MON ke_mean                      =   7.2646264824836E-07
(PID.TID 0000.0001) %MON ke_vol                       =   4.2724715234837E+12
(PID.TID 0000.0001) // =======================================================
(PID.TID 0000.0001) // End MONITOR dynamic field statistics
(PID.TID 0000.0001) // =======================================================
(PID.TID 0000.0001) // =======================================================
(PID.TID 0000.0001) // Begin OBCS MONITOR field statistics
(PID.TID 0000.0001) // =======================================================
(PID.TID 0000.0001) %MON obc_N_vVel_max               =   1.4695000402336E-05
(PID.TID 0000.0001) %MON obc_N_vVel_min               =   1.4695000402335E-05
(PID.TID 0000.0001) %MON obc_N_vVel_mean              =   1.4695000402335E-05
(PID.TID 0000.0001) %MON obc_N_vVel_sd                =   3.6556992178734E-12
(PID.TID 0000.0001) %MON obc_N_vVel_Int               =   9.6987002655414E+02
(PID.TID 0000.0001) // =======================================================
(PID.TID 0000.0001) // End OBCS MONITOR field statistics
(PID.TID 0000.0001) // =======================================================
 cg2d: Sum(rhs),rhsMax =   4.50639887234516E+00  2.99948334163548E+02
(PID.TID 0000.0001)      cg2d_init_res =   8.31187137857902E-06
(PID.TID 0000.0001)      cg2d_iters(min,last) =      -1      83
(PID.TID 0000.0001)      cg2d_last_res =   9.24483458574433E-12
(PID.TID 0000.0001) // =======================================================
(PID.TID 0000.0001) // Begin MONITOR dynamic field statistics
(PID.TID 0000.0001) // =======================================================
(PID.TID 0000.0001) %MON time_tsnumber                =                  1236
(PID.TID 0000.0001) %MON time_secondsf                =   1.2360000000000E+05
(PID.TID 0000.0001) %MON dynstat_eta_max              =   5.7987726032757E+00
(PID.TID 0000.0001) %MON dynstat_eta_min              =  -1.4186908094846E+01
(PID.TID 0000.0001) %MON dynstat_eta_mean             =  -2.5031237682156E+00
(PID.TID 0000.0001) %MON dynstat_eta_sd               =   4.9496821693747E+00
(PID.TID 0000.0001) %MON dynstat_eta_del2             =   2.0715787491397E-01
(PID.TID 0000.0001) %MON dynstat_uvel_max             =   8.0301876240441E-03
(PID.TID 0000.0001) %MON dynstat_uvel_min             =  -3.6587346188289E-02
(PID.TID 0000.0001) %MON dynstat_uvel_mean            =  -1.0992852650745E-07
(PID.TID 0000.0001) %MON dynstat_uvel_sd              =   1.0602972913526E-03
(PID.TID 0000.0001) %MON dynstat_uvel_del2            =   1.5597527964638E-06
(PID.TID 0000.0001) %MON dynstat_vvel_max             =   2.6996542849140E-02
(PID.TID 0000.0001) %MON dynstat_vvel_min             =  -1.1980463065550E-02
(PID.TID 0000.0001) %MON dynstat_vvel_mean            =   1.4923395573904E-05
(PID.TID 0000.0001) %MON dynstat_vvel_sd              =   5.9767050731112E-04
(PID.TID 0000.0001) %MON dynstat_vvel_del2            =   1.2193342225045E-06
(PID.TID 0000.0001) %MON dynstat_wvel_max             =   1.4157249108153E-03
(PID.TID 0000.0001) %MON dynstat_wvel_min             =  -1.3618504705503E-03
(PID.TID 0000.0001) %MON dynstat_wvel_mean            =   6.7088502738418E-09
(PID.TID 0000.0001) %MON dynstat_wvel_sd              =   2.3238227491971E-05
(PID.TID 0000.0001) %MON dynstat_wvel_del2            =   9.6160072269858E-08
(PID.TID 0000.0001) %MON dynstat_theta_max            =   1.2000000000000E+00
(PID.TID 0000.0001) %MON dynstat_theta_min            =  -1.0000000000000E+00
(PID.TID 0000.0001) %MON dynstat_theta_mean           =   5.6855696323047E-01
(PID.TID 0000.0001) %MON dynstat_theta_sd             =   8.6828874626945E-01
(PID.TID 0000.0001) %MON dynstat_theta_del2           =   3.9122059744702E-06
(PID.TID 0000.0001) %MON dynstat_salt_max             =   3.4700000000000E+01
(PID.TID 0000.0001) %MON dynstat_salt_min             =   3.4000000000000E+01
(PID.TID 0000.0001) %MON dynstat_salt_mean            =   3.4499036925252E+01
(PID.TID 0000.0001) %MON dynstat_salt_sd              =   2.7625436122198E-01
(PID.TID 0000.0001) %MON dynstat_salt_del2            =   1.5465375015630E-06
(PID.TID 0000.0001) %MON advcfl_uvel_max              =   3.6587346188289E-03
(PID.TID 0000.0001) %MON advcfl_vvel_max              =   2.6996542849140E-03
(PID.TID 0000.0001) %MON advcfl_wvel_max              =   7.0786245540766E-03
(PID.TID 0000.0001) %MON advcfl_W_hf_max              =   7.0786245540766E-03
(PID.TID 0000.0001) %MON pe_b_mean                    =  -8.2950559800794E-01
(PID.TID 0000.0001) %MON ke_max                       =   5.1174303166930E-04
(PID.TID 0000.0001) %MON ke_mean                      =   7.2967868103708E-07
(PID.TID 0000.0001) %MON ke_vol                       =   4.2724714840376E+12
(PID.TID 0000.0001) // =======================================================
(PID.TID 0000.0001) // End MONITOR dynamic field statistics
(PID.TID 0000.0001) // =======================================================
(PID.TID 0000.0001) // =======================================================
(PID.TID 0000.0001) // Begin OBCS MONITOR field statistics
(PID.TID 0000.0001) // =======================================================
(PID.TID 0000.0001) %MON obc_N_vVel_max               =   1.4676044465224E-05
(PID.TID 0000.0001) %MON obc_N_vVel_min               =   1.4676044465224E-05
(PID.TID 0000.0001) %MON obc_N_vVel_mean              =   1.4676044465224E-05
(PID.TID 0000.0001) %MON obc_N_vVel_sd                =  -4.3426982159034E-24
(PID.TID 0000.0001) %MON obc_N_vVel_Int               =   9.6861893470480E+02
(PID.TID 0000.0001) // =======================================================
(PID.TID 0000.0001) // End OBCS MONITOR field statistics
(PID.TID 0000.0001) // =======================================================
 cg2d: Sum(rhs),rhsMax =   4.50640963915901E+00  2.99948404552873E+02
(PID.TID 0000.0001)      cg2d_init_res =   8.32060379623857E-06
(PID.TID 0000.0001)      cg2d_iters(min,last) =      -1      83
(PID.TID 0000.0001)      cg2d_last_res =   9.26073297682591E-12
(PID.TID 0000.0001) // =======================================================
(PID.TID 0000.0001) // Begin MONITOR dynamic field statistics
(PID.TID 0000.0001) // =======================================================
(PID.TID 0000.0001) %MON time_tsnumber                =                  1237
(PID.TID 0000.0001) %MON time_secondsf                =   1.2370000000000E+05
(PID.TID 0000.0001) %MON dynstat_eta_max              =   5.7987603623611E+00
(PID.TID 0000.0001) %MON dynstat_eta_min              =  -1.4186937667476E+01
(PID.TID 0000.0001) %MON dynstat_eta_mean             =  -2.5031303361619E+00
(PID.TID 0000.0001) %MON dynstat_eta_sd               =   4.9496847416448E+00
(PID.TID 0000.0001) %MON dynstat_eta_del2             =   2.0715791523684E-01
(PID.TID 0000.0001) %MON dynstat_uvel_max             =   8.0482960710810E-03
(PID.TID 0000.0001) %MON dynstat_uvel_min             =  -3.6671965851035E-02
(PID.TID 0000.0001) %MON dynstat_uvel_mean            =  -1.0991443470104E-07
(PID.TID 0000.0001) %MON dynstat_uvel_sd              =   1.0627447311993E-03
(PID.TID 0000.0001) %MON dynstat_uvel_del2            =   1.5635158008136E-06
(PID.TID 0000.0001) %MON dynstat_vvel_max             =   2.7046735958736E-02
(PID.TID 0000.0001) %MON dynstat_vvel_min             =  -1.2011198646576E-02
(PID.TID 0000.0001) %MON dynstat_vvel_mean            =   1.4907476123359E-05
(PID.TID 0000.0001) %MON dynstat_vvel_sd              =   5.9881257785258E-04
(PID.TID 0000.0001) %MON dynstat_vvel_del2            =   1.2218043490138E-06
(PID.TID 0000.0001) %MON dynstat_wvel_max             =   1.4187275229494E-03
(PID.TID 0000.0001) %MON dynstat_wvel_min             =  -1.3646929453600E-03
(PID.TID 0000.0001) %MON dynstat_wvel_mean            =   6.7167328647076E-09
(PID.TID 0000.0001) %MON dynstat_wvel_sd              =   2.3255072594577E-05
(PID.TID 0000.0001) %MON dynstat_wvel_del2            =   9.6196718322729E-08
(PID.TID 0000.0001) %MON dynstat_theta_max            =   1.2000000000000E+00
(PID.TID 0000.0001) %MON dynstat_theta_min            =  -1.0000000000000E+00
(PID.TID 0000.0001) %MON dynstat_theta_mean           =   5.6855580319061E-01
(PID.TID 0000.0001) %MON dynstat_theta_sd             =   8.6828812198853E-01
(PID.TID 0000.0001) %MON dynstat_theta_del2           =   3.9200119510462E-06
(PID.TID 0000.0001) %MON dynstat_salt_max             =   3.4700000000000E+01
(PID.TID 0000.0001) %MON dynstat_salt_min             =   3.4000000000000E+01
(PID.TID 0000.0001) %MON dynstat_salt_mean            =   3.4499036460962E+01
(PID.TID 0000.0001) %MON dynstat_salt_sd              =   2.7625412104392E-01
(PID.TID 0000.0001) %MON dynstat_salt_del2            =   1.5496571227196E-06
(PID.TID 0000.0001) %MON advcfl_uvel_max              =   3.6671965851035E-03
(PID.TID 0000.0001) %MON advcfl_vvel_max              =   2.7046735958736E-03
(PID.TID 0000.0001) %MON advcfl_wvel_max              =   7.0936376147470E-03
(PID.TID 0000.0001) %MON advcfl_W_hf_max              =   7.0936376147470E-03
(PID.TID 0000.0001) %MON pe_b_mean                    =  -8.2950703109053E-01
(PID.TID 0000.0001) %MON ke_max                       =   5.1451005703931E-04
(PID.TID 0000.0001) %MON ke_mean                      =   7.3290815803043E-07
(PID.TID 0000.0001) %MON ke_vol                       =   4.2724714448168E+12
(PID.TID 0000.0001) // =======================================================
(PID.TID 0000.0001) // End MONITOR dynamic field statistics
(PID.TID 0000.0001) // =======================================================
(PID.TID 0000.0001) // =======================================================
(PID.TID 0000.0001) // Begin OBCS MONITOR field statistics
(PID.TID 0000.0001) // =======================================================
(PID.TID 0000.0001) %MON obc_N_vVel_max               =   1.4659882933083E-05
(PID.TID 0000.0001) %MON obc_N_vVel_min               =   1.4659882933083E-05
(PID.TID 0000.0001) %MON obc_N_vVel_mean              =   1.4659882933083E-05
(PID.TID 0000.0001) %MON obc_N_vVel_sd                =   2.5319260943570E-12
(PID.TID 0000.0001) %MON obc_N_vVel_Int               =   9.6755227358347E+02
(PID.TID 0000.0001) // =======================================================
(PID.TID 0000.0001) // End OBCS MONITOR field statistics
(PID.TID 0000.0001) // =======================================================
 cg2d: Sum(rhs),rhsMax =   4.50642035004300E+00  2.99948474887259E+02
(PID.TID 0000.0001)      cg2d_init_res =   8.33130890062467E-06
(PID.TID 0000.0001)      cg2d_iters(min,last) =      -1      83
(PID.TID 0000.0001)      cg2d_last_res =   9.27913220279016E-12
(PID.TID 0000.0001) // =======================================================
(PID.TID 0000.0001) // Begin MONITOR dynamic field statistics
(PID.TID 0000.0001) // =======================================================
(PID.TID 0000.0001) %MON time_tsnumber                =                  1238
(PID.TID 0000.0001) %MON time_secondsf                =   1.2380000000000E+05
(PID.TID 0000.0001) %MON dynstat_eta_max              =   5.7987481698155E+00
(PID.TID 0000.0001) %MON dynstat_eta_min              =  -1.4186967239232E+01
(PID.TID 0000.0001) %MON dynstat_eta_mean             =  -2.5031368725857E+00
(PID.TID 0000.0001) %MON dynstat_eta_sd               =   4.9496873073266E+00
(PID.TID 0000.0001) %MON dynstat_eta_del2             =   2.0715795562436E-01
(PID.TID 0000.0001) %MON dynstat_uvel_max             =   8.0664358308908E-03
(PID.TID 0000.0001) %MON dynstat_uvel_min             =  -3.6756714820634E-02
(PID.TID 0000.0001) %MON dynstat_uvel_mean            =  -1.0996916869860E-07
(PID.TID 0000.0001) %MON dynstat_uvel_sd              =   1.0651972446836E-03
(PID.TID 0000.0001) %MON dynstat_uvel_del2            =   1.5672879770367E-06
(PID.TID 0000.0001) %MON dynstat_vvel_max             =   2.7096947980027E-02
(PID.TID 0000.0001) %MON dynstat_vvel_min             =  -1.2042002972212E-02
(PID.TID 0000.0001) %MON dynstat_vvel_mean            =   1.4895168893876E-05
(PID.TID 0000.0001) %MON dynstat_vvel_sd              =   5.9995653352976E-04
(PID.TID 0000.0001) %MON dynstat_vvel_del2            =   1.2242779230585E-06
(PID.TID 0000.0001) %MON dynstat_wvel_max             =   1.4217325378697E-03
(PID.TID 0000.0001) %MON dynstat_wvel_min             =  -1.3675377790968E-03
(PID.TID 0000.0001) %MON dynstat_wvel_mean            =   6.7306727353095E-09
(PID.TID 0000.0001) %MON dynstat_wvel_sd              =   2.3269005203698E-05
(PID.TID 0000.0001) %MON dynstat_wvel_del2            =   9.6215842857505E-08
(PID.TID 0000.0001) %MON dynstat_theta_max            =   1.2000000000000E+00
(PID.TID 0000.0001) %MON dynstat_theta_min            =  -1.0000000000000E+00
(PID.TID 0000.0001) %MON dynstat_theta_mean           =   5.6855464111177E-01
(PID.TID 0000.0001) %MON dynstat_theta_sd             =   8.6828749668198E-01
(PID.TID 0000.0001) %MON dynstat_theta_del2           =   3.9278359747722E-06
(PID.TID 0000.0001) %MON dynstat_salt_max             =   3.4700000000000E+01
(PID.TID 0000.0001) %MON dynstat_salt_min             =   3.4000000000000E+01
(PID.TID 0000.0001) %MON dynstat_salt_mean            =   3.4499035995856E+01
(PID.TID 0000.0001) %MON dynstat_salt_sd              =   2.7625388047382E-01
(PID.TID 0000.0001) %MON dynstat_salt_del2            =   1.5527831351757E-06
(PID.TID 0000.0001) %MON advcfl_uvel_max              =   3.6756714820634E-03
(PID.TID 0000.0001) %MON advcfl_vvel_max              =   2.7096947980027E-03
(PID.TID 0000.0001) %MON advcfl_wvel_max              =   7.1086626893483E-03
(PID.TID 0000.0001) %MON advcfl_W_hf_max              =   7.1086626893483E-03
(PID.TID 0000.0001) %MON pe_b_mean                    =  -8.2950845532722E-01
(PID.TID 0000.0001) %MON ke_max                       =   5.1729004453873E-04
(PID.TID 0000.0001) %MON ke_mean                      =   7.3615129247575E-07
(PID.TID 0000.0001) %MON ke_vol                       =   4.2724714058032E+12
(PID.TID 0000.0001) // =======================================================
(PID.TID 0000.0001) // End MONITOR dynamic field statistics
(PID.TID 0000.0001) // =======================================================
(PID.TID 0000.0001) // =======================================================
(PID.TID 0000.0001) // Begin OBCS MONITOR field statistics
(PID.TID 0000.0001) // =======================================================
(PID.TID 0000.0001) %MON obc_N_vVel_max               =   1.4646767064006E-05
(PID.TID 0000.0001) %MON obc_N_vVel_min               =   1.4646767064006E-05
(PID.TID 0000.0001) %MON obc_N_vVel_mean              =   1.4646767064006E-05
(PID.TID 0000.0001) %MON obc_N_vVel_sd                =   2.1570560830935E-12
(PID.TID 0000.0001) %MON obc_N_vVel_Int               =   9.6668662622437E+02
(PID.TID 0000.0001) // =======================================================
(PID.TID 0000.0001) // End OBCS MONITOR field statistics
(PID.TID 0000.0001) // =======================================================
 cg2d: Sum(rhs),rhsMax =   4.50643101027296E+00  2.99948545243908E+02
(PID.TID 0000.0001)      cg2d_init_res =   8.34400355169726E-06
(PID.TID 0000.0001)      cg2d_iters(min,last) =      -1      83
(PID.TID 0000.0001)      cg2d_last_res =   9.29987848361060E-12
(PID.TID 0000.0001) // =======================================================
(PID.TID 0000.0001) // Begin MONITOR dynamic field statistics
(PID.TID 0000.0001) // =======================================================
(PID.TID 0000.0001) %MON time_tsnumber                =                  1239
(PID.TID 0000.0001) %MON time_secondsf                =   1.2390000000000E+05
(PID.TID 0000.0001) %MON dynstat_eta_max              =   5.7987360186639E+00
(PID.TID 0000.0001) %MON dynstat_eta_min              =  -1.4186996814790E+01
(PID.TID 0000.0001) %MON dynstat_eta_mean             =  -2.5031433810619E+00
(PID.TID 0000.0001) %MON dynstat_eta_sd               =   4.9496898677292E+00
(PID.TID 0000.0001) %MON dynstat_eta_del2             =   2.0715799607784E-01
(PID.TID 0000.0001) %MON dynstat_uvel_max             =   8.0846069313125E-03
(PID.TID 0000.0001) %MON dynstat_uvel_min             =  -3.6841593188333E-02
(PID.TID 0000.0001) %MON dynstat_uvel_mean            =  -1.1009588876578E-07
(PID.TID 0000.0001) %MON dynstat_uvel_sd              =   1.0676548452543E-03
(PID.TID 0000.0001) %MON dynstat_uvel_del2            =   1.5710693632183E-06
(PID.TID 0000.0001) %MON dynstat_vvel_max             =   2.7147178713558E-02
(PID.TID 0000.0001) %MON dynstat_vvel_min             =  -1.2072876145449E-02
(PID.TID 0000.0001) %MON dynstat_vvel_mean            =   1.4886659533952E-05
(PID.TID 0000.0001) %MON dynstat_vvel_sd              =   6.0110265620157E-04
(PID.TID 0000.0001) %MON dynstat_vvel_del2            =   1.2267574368196E-06
(PID.TID 0000.0001) %MON dynstat_wvel_max             =   1.4247399417484E-03
(PID.TID 0000.0001) %MON dynstat_wvel_min             =  -1.3703849624945E-03
(PID.TID 0000.0001) %MON dynstat_wvel_mean            =   6.7504200592172E-09
(PID.TID 0000.0001) %MON dynstat_wvel_sd              =   2.3281705424430E-05
(PID.TID 0000.0001) %MON dynstat_wvel_del2            =   9.6226339546023E-08
(PID.TID 0000.0001) %MON dynstat_theta_max            =   1.2000000000000E+00
(PID.TID 0000.0001) %MON dynstat_theta_min            =  -1.0000000000000E+00
(PID.TID 0000.0001) %MON dynstat_theta_mean           =   5.6855347699195E-01
(PID.TID 0000.0001) %MON dynstat_theta_sd             =   8.6828687035120E-01
(PID.TID 0000.0001) %MON dynstat_theta_del2           =   3.9356746965943E-06
(PID.TID 0000.0001) %MON dynstat_salt_max             =   3.4700000000000E+01
(PID.TID 0000.0001) %MON dynstat_salt_min             =   3.4000000000000E+01
(PID.TID 0000.0001) %MON dynstat_salt_mean            =   3.4499035529935E+01
(PID.TID 0000.0001) %MON dynstat_salt_sd              =   2.7625363951191E-01
(PID.TID 0000.0001) %MON dynstat_salt_del2            =   1.5559146241369E-06
(PID.TID 0000.0001) %MON advcfl_uvel_max              =   3.6841593188333E-03
(PID.TID 0000.0001) %MON advcfl_vvel_max              =   2.7147178713558E-03
(PID.TID 0000.0001) %MON advcfl_wvel_max              =   7.1236997087419E-03
(PID.TID 0000.0001) %MON advcfl_W_hf_max              =   7.1236997087419E-03
(PID.TID 0000.0001) %MON pe_b_mean                    =  -8.2950987168351E-01
(PID.TID 0000.0001) %MON ke_max                       =   5.2008304023418E-04
(PID.TID 0000.0001) %MON ke_mean                      =   7.3940831352659E-07
(PID.TID 0000.0001) %MON ke_vol                       =   4.2724713669768E+12
(PID.TID 0000.0001) // =======================================================
(PID.TID 0000.0001) // End MONITOR dynamic field statistics
(PID.TID 0000.0001) // =======================================================
(PID.TID 0000.0001) // =======================================================
(PID.TID 0000.0001) // Begin OBCS MONITOR field statistics
(PID.TID 0000.0001) // =======================================================
(PID.TID 0000.0001) %MON obc_N_vVel_max               =   1.4636896908451E-05
(PID.TID 0000.0001) %MON obc_N_vVel_min               =   1.4636896908451E-05
(PID.TID 0000.0001) %MON obc_N_vVel_mean              =   1.4636896908451E-05
(PID.TID 0000.0001) %MON obc_N_vVel_sd                =   3.5589609620953E-12
(PID.TID 0000.0001) %MON obc_N_vVel_Int               =   9.6603519595774E+02
(PID.TID 0000.0001) // =======================================================
(PID.TID 0000.0001) // End OBCS MONITOR field statistics
(PID.TID 0000.0001) // =======================================================
 cg2d: Sum(rhs),rhsMax =   4.50644162544838E+00  2.99948615697825E+02
(PID.TID 0000.0001)      cg2d_init_res =   8.35867870039591E-06
(PID.TID 0000.0001)      cg2d_iters(min,last) =      -1      83
(PID.TID 0000.0001)      cg2d_last_res =   9.32264469161850E-12
(PID.TID 0000.0001) // =======================================================
(PID.TID 0000.0001) // Begin MONITOR dynamic field statistics
(PID.TID 0000.0001) // =======================================================
(PID.TID 0000.0001) %MON time_tsnumber                =                  1240
(PID.TID 0000.0001) %MON time_secondsf                =   1.2400000000000E+05
(PID.TID 0000.0001) %MON dynstat_eta_max              =   5.7987239017648E+00
(PID.TID 0000.0001) %MON dynstat_eta_min              =  -1.4187026398823E+01
(PID.TID 0000.0001) %MON dynstat_eta_mean             =  -2.5031498653265E+00
(PID.TID 0000.0001) %MON dynstat_eta_sd               =   4.9496924241622E+00
(PID.TID 0000.0001) %MON dynstat_eta_del2             =   2.0715803659856E-01
(PID.TID 0000.0001) %MON dynstat_uvel_max             =   8.1028094070632E-03
(PID.TID 0000.0001) %MON dynstat_uvel_min             =  -3.6926601031061E-02
(PID.TID 0000.0001) %MON dynstat_uvel_mean            =  -1.1029018031928E-07
(PID.TID 0000.0001) %MON dynstat_uvel_sd              =   1.0701175461066E-03
(PID.TID 0000.0001) %MON dynstat_uvel_del2            =   1.5748599975362E-06
(PID.TID 0000.0001) %MON dynstat_vvel_max             =   2.7197427940340E-02
(PID.TID 0000.0001) %MON dynstat_vvel_min             =  -1.2103818275115E-02
(PID.TID 0000.0001) %MON dynstat_vvel_mean            =   1.4882069999345E-05
(PID.TID 0000.0001) %MON dynstat_vvel_sd              =   6.0225123479003E-04
(PID.TID 0000.0001) %MON dynstat_vvel_del2            =   1.2292453379015E-06
(PID.TID 0000.0001) %MON dynstat_wvel_max             =   1.4277497213594E-03
(PID.TID 0000.0001) %MON dynstat_wvel_min             =  -1.3732344862209E-03
(PID.TID 0000.0001) %MON dynstat_wvel_mean            =   6.7756294776993E-09
(PID.TID 0000.0001) %MON dynstat_wvel_sd              =   2.3294910399517E-05
(PID.TID 0000.0001) %MON dynstat_wvel_del2            =   9.6237590435509E-08
(PID.TID 0000.0001) %MON dynstat_theta_max            =   1.2000000000000E+00
(PID.TID 0000.0001) %MON dynstat_theta_min            =  -1.0000000000000E+00
(PID.TID 0000.0001) %MON dynstat_theta_mean           =   5.6855231082921E-01
(PID.TID 0000.0001) %MON dynstat_theta_sd             =   8.6828624299593E-01
(PID.TID 0000.0001) %MON dynstat_theta_del2           =   3.9435241510122E-06
(PID.TID 0000.0001) %MON dynstat_salt_max             =   3.4700000000000E+01
(PID.TID 0000.0001) %MON dynstat_salt_min             =   3.4000000000000E+01
(PID.TID 0000.0001) %MON dynstat_salt_mean            =   3.4499035063195E+01
(PID.TID 0000.0001) %MON dynstat_salt_sd              =   2.7625339815844E-01
(PID.TID 0000.0001) %MON dynstat_salt_del2            =   1.5590504238489E-06
(PID.TID 0000.0001) %MON advcfl_uvel_max              =   3.6926601031061E-03
(PID.TID 0000.0001) %MON advcfl_vvel_max              =   2.7197427940340E-03
(PID.TID 0000.0001) %MON advcfl_wvel_max              =   7.1387486067970E-03
(PID.TID 0000.0001) %MON advcfl_W_hf_max              =   7.1387486067970E-03
(PID.TID 0000.0001) %MON pe_b_mean                    =  -8.2951128115107E-01
(PID.TID 0000.0001) %MON ke_max                       =   5.2288908956714E-04
(PID.TID 0000.0001) %MON ke_mean                      =   7.4267945492690E-07
(PID.TID 0000.0001) %MON ke_vol                       =   4.2724713283165E+12
(PID.TID 0000.0001) // =======================================================
(PID.TID 0000.0001) // End MONITOR dynamic field statistics
(PID.TID 0000.0001) // =======================================================
(PID.TID 0000.0001) // =======================================================
(PID.TID 0000.0001) // Begin OBCS MONITOR field statistics
(PID.TID 0000.0001) // =======================================================
(PID.TID 0000.0001) %MON obc_N_vVel_max               =   1.4630417961332E-05
(PID.TID 0000.0001) %MON obc_N_vVel_min               =   1.4630417961332E-05
(PID.TID 0000.0001) %MON obc_N_vVel_mean              =   1.4630417961332E-05
(PID.TID 0000.0001) %MON obc_N_vVel_sd                =   3.9415080717298E-12
(PID.TID 0000.0001) %MON obc_N_vVel_Int               =   9.6560758544788E+02
(PID.TID 0000.0001) // =======================================================
(PID.TID 0000.0001) // End OBCS MONITOR field statistics
(PID.TID 0000.0001) // =======================================================
 cg2d: Sum(rhs),rhsMax =   4.50645220139581E+00  2.99948686320685E+02
(PID.TID 0000.0001)      cg2d_init_res =   8.37528728066371E-06
(PID.TID 0000.0001)      cg2d_iters(min,last) =      -1      83
(PID.TID 0000.0001)      cg2d_last_res =   9.34696562415605E-12
(PID.TID 0000.0001) // =======================================================
(PID.TID 0000.0001) // Begin MONITOR dynamic field statistics
(PID.TID 0000.0001) // =======================================================
(PID.TID 0000.0001) %MON time_tsnumber                =                  1241
(PID.TID 0000.0001) %MON time_secondsf                =   1.2410000000000E+05
(PID.TID 0000.0001) %MON dynstat_eta_max              =   5.7987118119831E+00
(PID.TID 0000.0001) %MON dynstat_eta_min              =  -1.4187055995930E+01
(PID.TID 0000.0001) %MON dynstat_eta_mean             =  -2.5031563292141E+00
(PID.TID 0000.0001) %MON dynstat_eta_sd               =   4.9496949779130E+00
(PID.TID 0000.0001) %MON dynstat_eta_del2             =   2.0715807718746E-01
(PID.TID 0000.0001) %MON dynstat_uvel_max             =   8.1210432992584E-03
(PID.TID 0000.0001) %MON dynstat_uvel_min             =  -3.7011738413335E-02
(PID.TID 0000.0001) %MON dynstat_uvel_mean            =  -1.1054105420871E-07
(PID.TID 0000.0001) %MON dynstat_uvel_sd              =   1.0725853602732E-03
(PID.TID 0000.0001) %MON dynstat_uvel_del2            =   1.5786599188391E-06
(PID.TID 0000.0001) %MON dynstat_vvel_max             =   2.7247695421045E-02
(PID.TID 0000.0001) %MON dynstat_vvel_min             =  -1.2134829477082E-02
(PID.TID 0000.0001) %MON dynstat_vvel_mean            =   1.4881456696395E-05
(PID.TID 0000.0001) %MON dynstat_vvel_sd              =   6.0340254616503E-04
(PID.TID 0000.0001) %MON dynstat_vvel_del2            =   1.2317438548193E-06
(PID.TID 0000.0001) %MON dynstat_wvel_max             =   1.4307618635356E-03
(PID.TID 0000.0001) %MON dynstat_wvel_min             =  -1.3760863407911E-03
(PID.TID 0000.0001) %MON dynstat_wvel_mean            =   6.8058674426030E-09
(PID.TID 0000.0001) %MON dynstat_wvel_sd              =   2.3310294488704E-05
(PID.TID 0000.0001) %MON dynstat_wvel_del2            =   9.6258788659186E-08
(PID.TID 0000.0001) %MON dynstat_theta_max            =   1.2000000000000E+00
(PID.TID 0000.0001) %MON dynstat_theta_min            =  -1.0000000000000E+00
(PID.TID 0000.0001) %MON dynstat_theta_mean           =   5.6855114262157E-01
(PID.TID 0000.0001) %MON dynstat_theta_sd             =   8.6828561461579E-01
(PID.TID 0000.0001) %MON dynstat_theta_del2           =   3.9513819076715E-06
(PID.TID 0000.0001) %MON dynstat_salt_max             =   3.4700000000000E+01
(PID.TID 0000.0001) %MON dynstat_salt_min             =   3.4000000000000E+01
(PID.TID 0000.0001) %MON dynstat_salt_mean            =   3.4499034595638E+01
(PID.TID 0000.0001) %MON dynstat_salt_sd              =   2.7625315641290E-01
(PID.TID 0000.0001) %MON dynstat_salt_del2            =   1.5621899577947E-06
(PID.TID 0000.0001) %MON advcfl_uvel_max              =   3.7011738413335E-03
(PID.TID 0000.0001) %MON advcfl_vvel_max              =   2.7247695421045E-03
(PID.TID 0000.0001) %MON advcfl_wvel_max              =   7.1538093176782E-03
(PID.TID 0000.0001) %MON advcfl_W_hf_max              =   7.1538093176782E-03
(PID.TID 0000.0001) %MON pe_b_mean                    =  -8.2951268473110E-01
(PID.TID 0000.0001) %MON ke_max                       =   5.2570823743487E-04
(PID.TID 0000.0001) %MON ke_mean                      =   7.4596494359899E-07
(PID.TID 0000.0001) %MON ke_vol                       =   4.2724712898000E+12
(PID.TID 0000.0001) // =======================================================
(PID.TID 0000.0001) // End MONITOR dynamic field statistics
(PID.TID 0000.0001) // =======================================================
(PID.TID 0000.0001) // =======================================================
(PID.TID 0000.0001) // Begin OBCS MONITOR field statistics
(PID.TID 0000.0001) // =======================================================
(PID.TID 0000.0001) %MON obc_N_vVel_max               =   1.4627418804682E-05
(PID.TID 0000.0001) %MON obc_N_vVel_min               =   1.4627418804682E-05
(PID.TID 0000.0001) %MON obc_N_vVel_mean              =   1.4627418804682E-05
(PID.TID 0000.0001) %MON obc_N_vVel_sd                =  -1.8094575899597E-25
(PID.TID 0000.0001) %MON obc_N_vVel_Int               =   9.6540964110899E+02
(PID.TID 0000.0001) // =======================================================
(PID.TID 0000.0001) // End OBCS MONITOR field statistics
(PID.TID 0000.0001) // =======================================================
 cg2d: Sum(rhs),rhsMax =   4.50646274406659E+00  2.99948757179861E+02
(PID.TID 0000.0001)      cg2d_init_res =   8.39376648097438E-06
(PID.TID 0000.0001)      cg2d_iters(min,last) =      -1      83
(PID.TID 0000.0001)      cg2d_last_res =   9.37224923088418E-12
(PID.TID 0000.0001) // =======================================================
(PID.TID 0000.0001) // Begin MONITOR dynamic field statistics
(PID.TID 0000.0001) // =======================================================
(PID.TID 0000.0001) %MON time_tsnumber                =                  1242
(PID.TID 0000.0001) %MON time_secondsf                =   1.2420000000000E+05
(PID.TID 0000.0001) %MON dynstat_eta_max              =   5.7986997423523E+00
(PID.TID 0000.0001) %MON dynstat_eta_min              =  -1.4187085610509E+01
(PID.TID 0000.0001) %MON dynstat_eta_mean             =  -2.5031627765928E+00
(PID.TID 0000.0001) %MON dynstat_eta_sd               =   4.9496975302320E+00
(PID.TID 0000.0001) %MON dynstat_eta_del2             =   2.0715811784593E-01
(PID.TID 0000.0001) %MON dynstat_uvel_max             =   8.1393086557178E-03
(PID.TID 0000.0001) %MON dynstat_uvel_min             =  -3.7097005386344E-02
(PID.TID 0000.0001) %MON dynstat_uvel_mean            =  -1.1083251310436E-07
(PID.TID 0000.0001) %MON dynstat_uvel_sd              =   1.0750583004847E-03
(PID.TID 0000.0001) %MON dynstat_uvel_del2            =   1.5824691656868E-06
(PID.TID 0000.0001) %MON dynstat_vvel_max             =   2.7297980896887E-02
(PID.TID 0000.0001) %MON dynstat_vvel_min             =  -1.2165909875522E-02
(PID.TID 0000.0001) %MON dynstat_vvel_mean            =   1.4884809730724E-05
(PID.TID 0000.0001) %MON dynstat_vvel_sd              =   6.0455683704856E-04
(PID.TID 0000.0001) %MON dynstat_vvel_del2            =   1.2342548401024E-06
(PID.TID 0000.0001) %MON dynstat_wvel_max             =   1.4337763552425E-03
(PID.TID 0000.0001) %MON dynstat_wvel_min             =  -1.3789405165003E-03
(PID.TID 0000.0001) %MON dynstat_wvel_mean            =   6.8406190604675E-09
(PID.TID 0000.0001) %MON dynstat_wvel_sd              =   2.3329354707054E-05
(PID.TID 0000.0001) %MON dynstat_wvel_del2            =   9.6298275165480E-08
(PID.TID 0000.0001) %MON dynstat_theta_max            =   1.2000000000000E+00
(PID.TID 0000.0001) %MON dynstat_theta_min            =  -1.0000000000000E+00
(PID.TID 0000.0001) %MON dynstat_theta_mean           =   5.6854997236704E-01
(PID.TID 0000.0001) %MON dynstat_theta_sd             =   8.6828498520729E-01
(PID.TID 0000.0001) %MON dynstat_theta_del2           =   3.9592452931078E-06
(PID.TID 0000.0001) %MON dynstat_salt_max             =   3.4700000000000E+01
(PID.TID 0000.0001) %MON dynstat_salt_min             =   3.4000000000000E+01
(PID.TID 0000.0001) %MON dynstat_salt_mean            =   3.4499034127261E+01
(PID.TID 0000.0001) %MON dynstat_salt_sd              =   2.7625291427453E-01
(PID.TID 0000.0001) %MON dynstat_salt_del2            =   1.5653324991572E-06
(PID.TID 0000.0001) %MON advcfl_uvel_max              =   3.7097005386344E-03
(PID.TID 0000.0001) %MON advcfl_vvel_max              =   2.7297980896887E-03
(PID.TID 0000.0001) %MON advcfl_wvel_max              =   7.1688817762127E-03
(PID.TID 0000.0001) %MON advcfl_W_hf_max              =   7.1688817762127E-03
(PID.TID 0000.0001) %MON pe_b_mean                    =  -8.2951408341743E-01
(PID.TID 0000.0001) %MON ke_max                       =   5.2854052818446E-04
(PID.TID 0000.0001) %MON ke_mean                      =   7.4926498848699E-07
(PID.TID 0000.0001) %MON ke_vol                       =   4.2724712514045E+12
(PID.TID 0000.0001) // =======================================================
(PID.TID 0000.0001) // End MONITOR dynamic field statistics
(PID.TID 0000.0001) // =======================================================
(PID.TID 0000.0001) // =======================================================
(PID.TID 0000.0001) // Begin OBCS MONITOR field statistics
(PID.TID 0000.0001) // =======================================================
(PID.TID 0000.0001) %MON obc_N_vVel_max               =   1.4627929781692E-05
(PID.TID 0000.0001) %MON obc_N_vVel_min               =   1.4627929781691E-05
(PID.TID 0000.0001) %MON obc_N_vVel_mean              =   1.4627929781691E-05
(PID.TID 0000.0001) %MON obc_N_vVel_sd                =   4.4352439552156E-12
(PID.TID 0000.0001) %MON obc_N_vVel_Int               =   9.6544336559161E+02
(PID.TID 0000.0001) // =======================================================
(PID.TID 0000.0001) // End OBCS MONITOR field statistics
(PID.TID 0000.0001) // =======================================================
 cg2d: Sum(rhs),rhsMax =   4.50647325943505E+00  2.99948828337420E+02
(PID.TID 0000.0001)      cg2d_init_res =   8.41399207282141E-06
(PID.TID 0000.0001)      cg2d_iters(min,last) =      -1      83
(PID.TID 0000.0001)      cg2d_last_res =   9.39786802517304E-12
(PID.TID 0000.0001) // =======================================================
(PID.TID 0000.0001) // Begin MONITOR dynamic field statistics
(PID.TID 0000.0001) // =======================================================
(PID.TID 0000.0001) %MON time_tsnumber                =                  1243
(PID.TID 0000.0001) %MON time_secondsf                =   1.2430000000000E+05
(PID.TID 0000.0001) %MON dynstat_eta_max              =   5.7986876862144E+00
(PID.TID 0000.0001) %MON dynstat_eta_min              =  -1.4187115246704E+01
(PID.TID 0000.0001) %MON dynstat_eta_mean             =  -2.5031692112990E+00
(PID.TID 0000.0001) %MON dynstat_eta_sd               =   4.9497000823055E+00
(PID.TID 0000.0001) %MON dynstat_eta_del2             =   2.0715815857496E-01
(PID.TID 0000.0001) %MON dynstat_uvel_max             =   8.1576055303003E-03
(PID.TID 0000.0001) %MON dynstat_uvel_min             =  -3.7185226154766E-02
(PID.TID 0000.0001) %MON dynstat_uvel_mean            =  -1.1114548518418E-07
(PID.TID 0000.0001) %MON dynstat_uvel_sd              =   1.0775363792688E-03
(PID.TID 0000.0001) %MON dynstat_uvel_del2            =   1.5862877771006E-06
(PID.TID 0000.0001) %MON dynstat_vvel_max             =   2.7348284091683E-02
(PID.TID 0000.0001) %MON dynstat_vvel_min             =  -1.2197059604830E-02
(PID.TID 0000.0001) %MON dynstat_vvel_mean            =   1.4892053277327E-05
(PID.TID 0000.0001) %MON dynstat_vvel_sd              =   6.0571430843336E-04
(PID.TID 0000.0001) %MON dynstat_vvel_del2            =   1.2367796408921E-06
(PID.TID 0000.0001) %MON dynstat_wvel_max             =   1.4367931835293E-03
(PID.TID 0000.0001) %MON dynstat_wvel_min             =  -1.3817970032593E-03
(PID.TID 0000.0001) %MON dynstat_wvel_mean            =   6.8792983978372E-09
(PID.TID 0000.0001) %MON dynstat_wvel_sd              =   2.3353310100918E-05
(PID.TID 0000.0001) %MON dynstat_wvel_del2            =   9.6362948238555E-08
(PID.TID 0000.0001) %MON dynstat_theta_max            =   1.2000000000000E+00
(PID.TID 0000.0001) %MON dynstat_theta_min            =  -1.0000000000000E+00
(PID.TID 0000.0001) %MON dynstat_theta_mean           =   5.6854880006354E-01
(PID.TID 0000.0001) %MON dynstat_theta_sd             =   8.6828435476572E-01
(PID.TID 0000.0001) %MON dynstat_theta_del2           =   3.9671122151525E-06
(PID.TID 0000.0001) %MON dynstat_salt_max             =   3.4700000000000E+01
(PID.TID 0000.0001) %MON dynstat_salt_min             =   3.4000000000000E+01
(PID.TID 0000.0001) %MON dynstat_salt_mean            =   3.4499033658064E+01
(PID.TID 0000.0001) %MON dynstat_salt_sd              =   2.7625267174149E-01
(PID.TID 0000.0001) %MON dynstat_salt_del2            =   1.5684774764046E-06
(PID.TID 0000.0001) %MON advcfl_uvel_max              =   3.7185226154766E-03
(PID.TID 0000.0001) %MON advcfl_vvel_max              =   2.7348284091683E-03
(PID.TID 0000.0001) %MON advcfl_wvel_max              =   7.1839659176464E-03
(PID.TID 0000.0001) %MON advcfl_W_hf_max              =   7.1839659176464E-03
(PID.TID 0000.0001) %MON pe_b_mean                    =  -8.2951547817989E-01
(PID.TID 0000.0001) %MON ke_max                       =   5.3138600589034E-04
(PID.TID 0000.0001) %MON ke_mean                      =   7.5257977106041E-07
(PID.TID 0000.0001) %MON ke_vol                       =   4.2724712131070E+12
(PID.TID 0000.0001) // =======================================================
(PID.TID 0000.0001) // End MONITOR dynamic field statistics
(PID.TID 0000.0001) // =======================================================
(PID.TID 0000.0001) // =======================================================
(PID.TID 0000.0001) // Begin OBCS MONITOR field statistics
(PID.TID 0000.0001) // =======================================================
(PID.TID 0000.0001) %MON obc_N_vVel_max               =   1.4631922634464E-05
(PID.TID 0000.0001) %MON obc_N_vVel_min               =   1.4631922634464E-05
(PID.TID 0000.0001) %MON obc_N_vVel_mean              =   1.4631922634464E-05
(PID.TID 0000.0001) %MON obc_N_vVel_sd                =  -1.4604907690389E-23
(PID.TID 0000.0001) %MON obc_N_vVel_Int               =   9.6570689387464E+02
(PID.TID 0000.0001) // =======================================================
(PID.TID 0000.0001) // End OBCS MONITOR field statistics
(PID.TID 0000.0001) // =======================================================
 cg2d: Sum(rhs),rhsMax =   4.50648375339646E+00  2.99948899849266E+02
(PID.TID 0000.0001)      cg2d_init_res =   8.43581719613534E-06
(PID.TID 0000.0001)      cg2d_iters(min,last) =      -1      83
(PID.TID 0000.0001)      cg2d_last_res =   9.42319424442301E-12
(PID.TID 0000.0001) // =======================================================
(PID.TID 0000.0001) // Begin MONITOR dynamic field statistics
(PID.TID 0000.0001) // =======================================================
(PID.TID 0000.0001) %MON time_tsnumber                =                  1244
(PID.TID 0000.0001) %MON time_secondsf                =   1.2440000000000E+05
(PID.TID 0000.0001) %MON dynstat_eta_max              =   5.7986756373505E+00
(PID.TID 0000.0001) %MON dynstat_eta_min              =  -1.4187144908312E+01
(PID.TID 0000.0001) %MON dynstat_eta_mean             =  -2.5031756370738E+00
(PID.TID 0000.0001) %MON dynstat_eta_sd               =   4.9497026352377E+00
(PID.TID 0000.0001) %MON dynstat_eta_del2             =   2.0715819937545E-01
(PID.TID 0000.0001) %MON dynstat_uvel_max             =   8.1759339816401E-03
(PID.TID 0000.0001) %MON dynstat_uvel_min             =  -3.7275627638794E-02
(PID.TID 0000.0001) %MON dynstat_uvel_mean            =  -1.1145987048011E-07
(PID.TID 0000.0001) %MON dynstat_uvel_sd              =   1.0800196089780E-03
(PID.TID 0000.0001) %MON dynstat_uvel_del2            =   1.5901157923430E-06
(PID.TID 0000.0001) %MON dynstat_vvel_max             =   2.7398604714351E-02
(PID.TID 0000.0001) %MON dynstat_vvel_min             =  -1.2228278811337E-02
(PID.TID 0000.0001) %MON dynstat_vvel_mean            =   1.4903047054007E-05
(PID.TID 0000.0001) %MON dynstat_vvel_sd              =   6.0687510335389E-04
(PID.TID 0000.0001) %MON dynstat_vvel_del2            =   1.2393190060366E-06
(PID.TID 0000.0001) %MON dynstat_wvel_max             =   1.4398123354617E-03
(PID.TID 0000.0001) %MON dynstat_wvel_min             =  -1.3846557903436E-03
(PID.TID 0000.0001) %MON dynstat_wvel_mean            =   6.9212572896946E-09
(PID.TID 0000.0001) %MON dynstat_wvel_sd              =   2.3383022130577E-05
(PID.TID 0000.0001) %MON dynstat_wvel_del2            =   9.6457785493276E-08
(PID.TID 0000.0001) %MON dynstat_theta_max            =   1.2000000000000E+00
(PID.TID 0000.0001) %MON dynstat_theta_min            =  -1.0000000000000E+00
(PID.TID 0000.0001) %MON dynstat_theta_mean           =   5.6854762570901E-01
(PID.TID 0000.0001) %MON dynstat_theta_sd             =   8.6828372328656E-01
(PID.TID 0000.0001) %MON dynstat_theta_del2           =   3.9749812450700E-06
(PID.TID 0000.0001) %MON dynstat_salt_max             =   3.4700000000000E+01
(PID.TID 0000.0001) %MON dynstat_salt_min             =   3.4000000000000E+01
(PID.TID 0000.0001) %MON dynstat_salt_mean            =   3.4499033188046E+01
(PID.TID 0000.0001) %MON dynstat_salt_sd              =   2.7625242881262E-01
(PID.TID 0000.0001) %MON dynstat_salt_del2            =   1.5716244947190E-06
(PID.TID 0000.0001) %MON advcfl_uvel_max              =   3.7275627638794E-03
(PID.TID 0000.0001) %MON advcfl_vvel_max              =   2.7398604714351E-03
(PID.TID 0000.0001) %MON advcfl_wvel_max              =   7.1990616773084E-03
(PID.TID 0000.0001) %MON advcfl_W_hf_max              =   7.1990616773084E-03
(PID.TID 0000.0001) %MON pe_b_mean                    =  -8.2951686994818E-01
(PID.TID 0000.0001) %MON ke_max                       =   5.3424471439979E-04
(PID.TID 0000.0001) %MON ke_mean                      =   7.5590943768158E-07
(PID.TID 0000.0001) %MON ke_vol                       =   4.2724711748849E+12
(PID.TID 0000.0001) // =======================================================
(PID.TID 0000.0001) // End MONITOR dynamic field statistics
(PID.TID 0000.0001) // =======================================================
(PID.TID 0000.0001) // =======================================================
(PID.TID 0000.0001) // Begin OBCS MONITOR field statistics
(PID.TID 0000.0001) // =======================================================
(PID.TID 0000.0001) %MON obc_N_vVel_max               =   1.4639311203541E-05
(PID.TID 0000.0001) %MON obc_N_vVel_min               =   1.4639311203540E-05
(PID.TID 0000.0001) %MON obc_N_vVel_mean              =   1.4639311203541E-05
(PID.TID 0000.0001) %MON obc_N_vVel_sd                =  -1.6983051951479E-23
(PID.TID 0000.0001) %MON obc_N_vVel_Int               =   9.6619453943371E+02
(PID.TID 0000.0001) // =======================================================
(PID.TID 0000.0001) // End OBCS MONITOR field statistics
(PID.TID 0000.0001) // =======================================================
 cg2d: Sum(rhs),rhsMax =   4.50649423166550E+00  2.99948971764373E+02
(PID.TID 0000.0001)      cg2d_init_res =   8.45904663128821E-06
(PID.TID 0000.0001)      cg2d_iters(min,last) =      -1      83
(PID.TID 0000.0001)      cg2d_last_res =   9.44762205676688E-12
(PID.TID 0000.0001) // =======================================================
(PID.TID 0000.0001) // Begin MONITOR dynamic field statistics
(PID.TID 0000.0001) // =======================================================
(PID.TID 0000.0001) %MON time_tsnumber                =                  1245
(PID.TID 0000.0001) %MON time_secondsf                =   1.2450000000000E+05
(PID.TID 0000.0001) %MON dynstat_eta_max              =   5.7986635904774E+00
(PID.TID 0000.0001) %MON dynstat_eta_min              =  -1.4187174598725E+01
(PID.TID 0000.0001) %MON dynstat_eta_mean             =  -2.5031820575003E+00
(PID.TID 0000.0001) %MON dynstat_eta_sd               =   4.9497051900335E+00
(PID.TID 0000.0001) %MON dynstat_eta_del2             =   2.0715824024816E-01
(PID.TID 0000.0001) %MON dynstat_uvel_max             =   8.1942940727586E-03
(PID.TID 0000.0001) %MON dynstat_uvel_min             =  -3.7366170187211E-02
(PID.TID 0000.0001) %MON dynstat_uvel_mean            =  -1.1175649067191E-07
(PID.TID 0000.0001) %MON dynstat_uvel_sd              =   1.0825080018182E-03
(PID.TID 0000.0001) %MON dynstat_uvel_del2            =   1.5939532512516E-06
(PID.TID 0000.0001) %MON dynstat_vvel_max             =   2.7448942461400E-02
(PID.TID 0000.0001) %MON dynstat_vvel_min             =  -1.2259567654581E-02
(PID.TID 0000.0001) %MON dynstat_vvel_mean            =   1.4917588874936E-05
(PID.TID 0000.0001) %MON dynstat_vvel_sd              =   6.0803929884877E-04
(PID.TID 0000.0001) %MON dynstat_vvel_del2            =   1.2418730370878E-06
(PID.TID 0000.0001) %MON dynstat_wvel_max             =   1.4428337980837E-03
(PID.TID 0000.0001) %MON dynstat_wvel_min             =  -1.3875168664058E-03
(PID.TID 0000.0001) %MON dynstat_wvel_mean            =   6.9657959161746E-09
(PID.TID 0000.0001) %MON dynstat_wvel_sd              =   2.3418942101849E-05
(PID.TID 0000.0001) %MON dynstat_wvel_del2            =   9.6585520006390E-08
(PID.TID 0000.0001) %MON dynstat_theta_max            =   1.2000000000000E+00
(PID.TID 0000.0001) %MON dynstat_theta_min            =  -1.0000000000000E+00
(PID.TID 0000.0001) %MON dynstat_theta_mean           =   5.6854644930130E-01
(PID.TID 0000.0001) %MON dynstat_theta_sd             =   8.6828309076487E-01
(PID.TID 0000.0001) %MON dynstat_theta_del2           =   3.9828516994799E-06
(PID.TID 0000.0001) %MON dynstat_salt_max             =   3.4700000000000E+01
(PID.TID 0000.0001) %MON dynstat_salt_min             =   3.4000000000000E+01
(PID.TID 0000.0001) %MON dynstat_salt_mean            =   3.4499032717206E+01
(PID.TID 0000.0001) %MON dynstat_salt_sd              =   2.7625218548607E-01
(PID.TID 0000.0001) %MON dynstat_salt_del2            =   1.5747733565279E-06
(PID.TID 0000.0001) %MON advcfl_uvel_max              =   3.7366170187211E-03
(PID.TID 0000.0001) %MON advcfl_vvel_max              =   2.7448942461400E-03
(PID.TID 0000.0001) %MON advcfl_wvel_max              =   7.2141689904187E-03
(PID.TID 0000.0001) %MON advcfl_W_hf_max              =   7.2141689904187E-03
(PID.TID 0000.0001) %MON pe_b_mean                    =  -8.2951825959638E-01
(PID.TID 0000.0001) %MON ke_max                       =   5.3711669744934E-04
(PID.TID 0000.0001) %MON ke_mean                      =   7.5925409444664E-07
(PID.TID 0000.0001) %MON ke_vol                       =   4.2724711367158E+12
(PID.TID 0000.0001) // =======================================================
(PID.TID 0000.0001) // End MONITOR dynamic field statistics
(PID.TID 0000.0001) // =======================================================
(PID.TID 0000.0001) // =======================================================
(PID.TID 0000.0001) // Begin OBCS MONITOR field statistics
(PID.TID 0000.0001) // =======================================================
(PID.TID 0000.0001) %MON obc_N_vVel_max               =   1.4649953110879E-05
(PID.TID 0000.0001) %MON obc_N_vVel_min               =   1.4649953110879E-05
(PID.TID 0000.0001) %MON obc_N_vVel_mean              =   1.4649953110879E-05
(PID.TID 0000.0001) %MON obc_N_vVel_sd                =  -9.3057818912216E-24
(PID.TID 0000.0001) %MON obc_N_vVel_Int               =   9.6689690531800E+02
(PID.TID 0000.0001) // =======================================================
(PID.TID 0000.0001) // End OBCS MONITOR field statistics
(PID.TID 0000.0001) // =======================================================
 cg2d: Sum(rhs),rhsMax =   4.50650469967811E+00  2.99949044124188E+02
(PID.TID 0000.0001)      cg2d_init_res =   8.48344616012822E-06
(PID.TID 0000.0001)      cg2d_iters(min,last) =      -1      83
(PID.TID 0000.0001)      cg2d_last_res =   9.47062101540859E-12
(PID.TID 0000.0001) // =======================================================
(PID.TID 0000.0001) // Begin MONITOR dynamic field statistics
(PID.TID 0000.0001) // =======================================================
(PID.TID 0000.0001) %MON time_tsnumber                =                  1246
(PID.TID 0000.0001) %MON time_secondsf                =   1.2460000000000E+05
(PID.TID 0000.0001) %MON dynstat_eta_max              =   5.7986515400863E+00
(PID.TID 0000.0001) %MON dynstat_eta_min              =  -1.4187204320892E+01
(PID.TID 0000.0001) %MON dynstat_eta_mean             =  -2.5031884759437E+00
(PID.TID 0000.0001) %MON dynstat_eta_sd               =   4.9497077475808E+00
(PID.TID 0000.0001) %MON dynstat_eta_del2             =   2.0715828119374E-01
(PID.TID 0000.0001) %MON dynstat_uvel_max             =   8.2126858711469E-03
(PID.TID 0000.0001) %MON dynstat_uvel_min             =  -3.7456853650373E-02
(PID.TID 0000.0001) %MON dynstat_uvel_mean            =  -1.1201875911548E-07
(PID.TID 0000.0001) %MON dynstat_uvel_sd              =   1.0850015698420E-03
(PID.TID 0000.0001) %MON dynstat_uvel_del2            =   1.5978001933568E-06
(PID.TID 0000.0001) %MON dynstat_vvel_max             =   2.7499297019530E-02
(PID.TID 0000.0001) %MON dynstat_vvel_min             =  -1.2290926308399E-02
(PID.TID 0000.0001) %MON dynstat_vvel_mean            =   1.4935418228285E-05
(PID.TID 0000.0001) %MON dynstat_vvel_sd              =   6.0920690257577E-04
(PID.TID 0000.0001) %MON dynstat_vvel_del2            =   1.2444411848517E-06
(PID.TID 0000.0001) %MON dynstat_wvel_max             =   1.4458575583466E-03
(PID.TID 0000.0001) %MON dynstat_wvel_min             =  -1.3903802192454E-03
(PID.TID 0000.0001) %MON dynstat_wvel_mean            =   7.0121735287363E-09
(PID.TID 0000.0001) %MON dynstat_wvel_sd              =   2.3461089301605E-05
(PID.TID 0000.0001) %MON dynstat_wvel_del2            =   9.6746493958145E-08
(PID.TID 0000.0001) %MON dynstat_theta_max            =   1.2000000000000E+00
(PID.TID 0000.0001) %MON dynstat_theta_min            =  -1.0000000000000E+00
(PID.TID 0000.0001) %MON dynstat_theta_mean           =   5.6854527083815E-01
(PID.TID 0000.0001) %MON dynstat_theta_sd             =   8.6828245719550E-01
(PID.TID 0000.0001) %MON dynstat_theta_del2           =   3.9907236542455E-06
(PID.TID 0000.0001) %MON dynstat_salt_max             =   3.4700000000000E+01
(PID.TID 0000.0001) %MON dynstat_salt_min             =   3.4000000000000E+01
(PID.TID 0000.0001) %MON dynstat_salt_mean            =   3.4499032245542E+01
(PID.TID 0000.0001) %MON dynstat_salt_sd              =   2.7625194176036E-01
(PID.TID 0000.0001) %MON dynstat_salt_del2            =   1.5779240682417E-06
(PID.TID 0000.0001) %MON advcfl_uvel_max              =   3.7456853650373E-03
(PID.TID 0000.0001) %MON advcfl_vvel_max              =   2.7499297019530E-03
(PID.TID 0000.0001) %MON advcfl_wvel_max              =   7.2292877917332E-03
(PID.TID 0000.0001) %MON advcfl_W_hf_max              =   7.2292877917332E-03
(PID.TID 0000.0001) %MON pe_b_mean                    =  -8.2951964792834E-01
(PID.TID 0000.0001) %MON ke_max                       =   5.4000199879534E-04
(PID.TID 0000.0001) %MON ke_mean                      =   7.6261380477788E-07
(PID.TID 0000.0001) %MON ke_vol                       =   4.2724710985784E+12
(PID.TID 0000.0001) // =======================================================
(PID.TID 0000.0001) // End MONITOR dynamic field statistics
(PID.TID 0000.0001) // =======================================================
(PID.TID 0000.0001) // =======================================================
(PID.TID 0000.0001) // Begin OBCS MONITOR field statistics
(PID.TID 0000.0001) // =======================================================
(PID.TID 0000.0001) %MON obc_N_vVel_max               =   1.4663652403031E-05
(PID.TID 0000.0001) %MON obc_N_vVel_min               =   1.4663652403031E-05
(PID.TID 0000.0001) %MON obc_N_vVel_mean              =   1.4663652403031E-05
(PID.TID 0000.0001) %MON obc_N_vVel_sd                =   4.3528847798090E-12
(PID.TID 0000.0001) %MON obc_N_vVel_Int               =   9.6780105860001E+02
(PID.TID 0000.0001) // =======================================================
(PID.TID 0000.0001) // End OBCS MONITOR field statistics
(PID.TID 0000.0001) // =======================================================
 cg2d: Sum(rhs),rhsMax =   4.50651516249899E+00  2.99949116962123E+02
(PID.TID 0000.0001)      cg2d_init_res =   8.50874545559761E-06
(PID.TID 0000.0001)      cg2d_iters(min,last) =      -1      83
(PID.TID 0000.0001)      cg2d_last_res =   9.49176576796707E-12
(PID.TID 0000.0001) // =======================================================
(PID.TID 0000.0001) // Begin MONITOR dynamic field statistics
(PID.TID 0000.0001) // =======================================================
(PID.TID 0000.0001) %MON time_tsnumber                =                  1247
(PID.TID 0000.0001) %MON time_secondsf                =   1.2470000000000E+05
(PID.TID 0000.0001) %MON dynstat_eta_max              =   5.7986394817646E+00
(PID.TID 0000.0001) %MON dynstat_eta_min              =  -1.4187234077258E+01
(PID.TID 0000.0001) %MON dynstat_eta_mean             =  -2.5031948954963E+00
(PID.TID 0000.0001) %MON dynstat_eta_sd               =   4.9497103086367E+00
(PID.TID 0000.0001) %MON dynstat_eta_del2             =   2.0715832221265E-01
(PID.TID 0000.0001) %MON dynstat_uvel_max             =   8.2311094470029E-03
(PID.TID 0000.0001) %MON dynstat_uvel_min             =  -3.7547677877879E-02
(PID.TID 0000.0001) %MON dynstat_uvel_mean            =  -1.1223393265531E-07
(PID.TID 0000.0001) %MON dynstat_uvel_sd              =   1.0875003249619E-03
(PID.TID 0000.0001) %MON dynstat_uvel_del2            =   1.6016566580799E-06
(PID.TID 0000.0001) %MON dynstat_vvel_max             =   2.7549668067702E-02
(PID.TID 0000.0001) %MON dynstat_vvel_min             =  -1.2322354961249E-02
(PID.TID 0000.0001) %MON dynstat_vvel_mean            =   1.4956220820993E-05
(PID.TID 0000.0001) %MON dynstat_vvel_sd              =   6.1037785423149E-04
(PID.TID 0000.0001) %MON dynstat_vvel_del2            =   1.2470222921621E-06
(PID.TID 0000.0001) %MON dynstat_wvel_max             =   1.4488836030798E-03
(PID.TID 0000.0001) %MON dynstat_wvel_min             =  -1.3932458358775E-03
(PID.TID 0000.0001) %MON dynstat_wvel_mean            =   7.0596208099551E-09
(PID.TID 0000.0001) %MON dynstat_wvel_sd              =   2.3509061051308E-05
(PID.TID 0000.0001) %MON dynstat_wvel_del2            =   9.6938699472007E-08
(PID.TID 0000.0001) %MON dynstat_theta_max            =   1.2000000000000E+00
(PID.TID 0000.0001) %MON dynstat_theta_min            =  -1.0000000000000E+00
(PID.TID 0000.0001) %MON dynstat_theta_mean           =   5.6854409031722E-01
(PID.TID 0000.0001) %MON dynstat_theta_sd             =   8.6828182257197E-01
(PID.TID 0000.0001) %MON dynstat_theta_del2           =   3.9985977314108E-06
(PID.TID 0000.0001) %MON dynstat_salt_max             =   3.4700000000000E+01
(PID.TID 0000.0001) %MON dynstat_salt_min             =   3.4000000000000E+01
(PID.TID 0000.0001) %MON dynstat_salt_mean            =   3.4499031773054E+01
(PID.TID 0000.0001) %MON dynstat_salt_sd              =   2.7625169763326E-01
(PID.TID 0000.0001) %MON dynstat_salt_del2            =   1.5810768309387E-06
(PID.TID 0000.0001) %MON advcfl_uvel_max              =   3.7547677877879E-03
(PID.TID 0000.0001) %MON advcfl_vvel_max              =   2.7549668067702E-03
(PID.TID 0000.0001) %MON advcfl_wvel_max              =   7.2444180153989E-03
(PID.TID 0000.0001) %MON advcfl_W_hf_max              =   7.2444180153989E-03
(PID.TID 0000.0001) %MON pe_b_mean                    =  -8.2952103566447E-01
(PID.TID 0000.0001) %MON ke_max                       =   5.4290066231629E-04
(PID.TID 0000.0001) %MON ke_mean                      =   7.6598858995431E-07
(PID.TID 0000.0001) %MON ke_vol                       =   4.2724710604529E+12
(PID.TID 0000.0001) // =======================================================
(PID.TID 0000.0001) // End MONITOR dynamic field statistics
(PID.TID 0000.0001) // =======================================================
(PID.TID 0000.0001) // =======================================================
(PID.TID 0000.0001) // Begin OBCS MONITOR field statistics
(PID.TID 0000.0001) // =======================================================
(PID.TID 0000.0001) %MON obc_N_vVel_max               =   1.4680163039058E-05
(PID.TID 0000.0001) %MON obc_N_vVel_min               =   1.4680163039058E-05
(PID.TID 0000.0001) %MON obc_N_vVel_mean              =   1.4680163039058E-05
(PID.TID 0000.0001) %MON obc_N_vVel_sd                =   1.7612289167152E-12
(PID.TID 0000.0001) %MON obc_N_vVel_Int               =   9.6889076057780E+02
(PID.TID 0000.0001) // =======================================================
(PID.TID 0000.0001) // End OBCS MONITOR field statistics
(PID.TID 0000.0001) // =======================================================
 cg2d: Sum(rhs),rhsMax =   4.50652562473552E+00  2.99949190303176E+02
(PID.TID 0000.0001)      cg2d_init_res =   8.53464546999602E-06
(PID.TID 0000.0001)      cg2d_iters(min,last) =      -1      83
(PID.TID 0000.0001)      cg2d_last_res =   9.51075310462580E-12
(PID.TID 0000.0001) // =======================================================
(PID.TID 0000.0001) // Begin MONITOR dynamic field statistics
(PID.TID 0000.0001) // =======================================================
(PID.TID 0000.0001) %MON time_tsnumber                =                  1248
(PID.TID 0000.0001) %MON time_secondsf                =   1.2480000000000E+05
(PID.TID 0000.0001) %MON dynstat_eta_max              =   5.7986274117989E+00
(PID.TID 0000.0001) %MON dynstat_eta_min              =  -1.4187263869745E+01
(PID.TID 0000.0001) %MON dynstat_eta_mean             =  -2.5032013189258E+00
(PID.TID 0000.0001) %MON dynstat_eta_sd               =   4.9497128738144E+00
(PID.TID 0000.0001) %MON dynstat_eta_del2             =   2.0715836330529E-01
(PID.TID 0000.0001) %MON dynstat_uvel_max             =   8.2495648730401E-03
(PID.TID 0000.0001) %MON dynstat_uvel_min             =  -3.7638642720622E-02
(PID.TID 0000.0001) %MON dynstat_uvel_mean            =  -1.1239385851542E-07
(PID.TID 0000.0001) %MON dynstat_uvel_sd              =   1.0900042789637E-03
(PID.TID 0000.0001) %MON dynstat_uvel_del2            =   1.6055226850775E-06
(PID.TID 0000.0001) %MON dynstat_vvel_max             =   2.7600055279209E-02
(PID.TID 0000.0001) %MON dynstat_vvel_min             =  -1.2353853816151E-02
(PID.TID 0000.0001) %MON dynstat_vvel_mean            =   1.4979634022102E-05
(PID.TID 0000.0001) %MON dynstat_vvel_sd              =   6.1155203152475E-04
(PID.TID 0000.0001) %MON dynstat_vvel_del2            =   1.2496146780858E-06
(PID.TID 0000.0001) %MON dynstat_wvel_max             =   1.4519119189617E-03
(PID.TID 0000.0001) %MON dynstat_wvel_min             =  -1.3961137024079E-03
(PID.TID 0000.0001) %MON dynstat_wvel_mean            =   7.1073518874802E-09
(PID.TID 0000.0001) %MON dynstat_wvel_sd              =   2.3562073194201E-05
(PID.TID 0000.0001) %MON dynstat_wvel_del2            =   9.7157998119335E-08
(PID.TID 0000.0001) %MON dynstat_theta_max            =   1.2000000000000E+00
(PID.TID 0000.0001) %MON dynstat_theta_min            =  -1.0000000000000E+00
(PID.TID 0000.0001) %MON dynstat_theta_mean           =   5.6854290773604E-01
(PID.TID 0000.0001) %MON dynstat_theta_sd             =   8.6828118688874E-01
(PID.TID 0000.0001) %MON dynstat_theta_del2           =   4.0064754823640E-06
(PID.TID 0000.0001) %MON dynstat_salt_max             =   3.4700000000000E+01
(PID.TID 0000.0001) %MON dynstat_salt_min             =   3.4000000000000E+01
(PID.TID 0000.0001) %MON dynstat_salt_mean            =   3.4499031299741E+01
(PID.TID 0000.0001) %MON dynstat_salt_sd              =   2.7625145310298E-01
(PID.TID 0000.0001) %MON dynstat_salt_del2            =   1.5842320161339E-06
(PID.TID 0000.0001) %MON advcfl_uvel_max              =   3.7638642720622E-03
(PID.TID 0000.0001) %MON advcfl_vvel_max              =   2.7600055279209E-03
(PID.TID 0000.0001) %MON advcfl_wvel_max              =   7.2595595948085E-03
(PID.TID 0000.0001) %MON advcfl_W_hf_max              =   7.2595595948085E-03
(PID.TID 0000.0001) %MON pe_b_mean                    =  -8.2952242342976E-01
(PID.TID 0000.0001) %MON ke_max                       =   5.4581273208888E-04
(PID.TID 0000.0001) %MON ke_mean                      =   7.6937843244543E-07
(PID.TID 0000.0001) %MON ke_vol                       =   4.2724710223208E+12
(PID.TID 0000.0001) // =======================================================
(PID.TID 0000.0001) // End MONITOR dynamic field statistics
(PID.TID 0000.0001) // =======================================================
(PID.TID 0000.0001) // =======================================================
(PID.TID 0000.0001) // Begin OBCS MONITOR field statistics
(PID.TID 0000.0001) // =======================================================
(PID.TID 0000.0001) %MON obc_N_vVel_max               =   1.4699193261012E-05
(PID.TID 0000.0001) %MON obc_N_vVel_min               =   1.4699193261012E-05
(PID.TID 0000.0001) %MON obc_N_vVel_mean              =   1.4699193261012E-05
(PID.TID 0000.0001) %MON obc_N_vVel_sd                =  -4.3168488217611E-24
(PID.TID 0000.0001) %MON obc_N_vVel_Int               =   9.7014675522679E+02
(PID.TID 0000.0001) // =======================================================
(PID.TID 0000.0001) // End OBCS MONITOR field statistics
(PID.TID 0000.0001) // =======================================================
 cg2d: Sum(rhs),rhsMax =   4.50653609024281E+00  2.99949264177957E+02
(PID.TID 0000.0001)      cg2d_init_res =   8.56081551622282E-06
(PID.TID 0000.0001)      cg2d_iters(min,last) =      -1      83
(PID.TID 0000.0001)      cg2d_last_res =   9.52740381373724E-12
(PID.TID 0000.0001) // =======================================================
(PID.TID 0000.0001) // Begin MONITOR dynamic field statistics
(PID.TID 0000.0001) // =======================================================
(PID.TID 0000.0001) %MON time_tsnumber                =                  1249
(PID.TID 0000.0001) %MON time_secondsf                =   1.2490000000000E+05
(PID.TID 0000.0001) %MON dynstat_eta_max              =   5.7986153272199E+00
(PID.TID 0000.0001) %MON dynstat_eta_min              =  -1.4187293699721E+01
(PID.TID 0000.0001) %MON dynstat_eta_mean             =  -2.5032077486291E+00
(PID.TID 0000.0001) %MON dynstat_eta_sd               =   4.9497154435715E+00
(PID.TID 0000.0001) %MON dynstat_eta_del2             =   2.0715840447174E-01
(PID.TID 0000.0001) %MON dynstat_uvel_max             =   8.2680522234391E-03
(PID.TID 0000.0001) %MON dynstat_uvel_min             =  -3.7729748032129E-02
(PID.TID 0000.0001) %MON dynstat_uvel_mean            =  -1.1249518962323E-07
(PID.TID 0000.0001) %MON dynstat_uvel_sd              =   1.0925134434577E-03
(PID.TID 0000.0001) %MON dynstat_uvel_del2            =   1.6093983129780E-06
(PID.TID 0000.0001) %MON dynstat_vvel_max             =   2.7650458322995E-02
(PID.TID 0000.0001) %MON dynstat_vvel_min             =  -1.2385423089322E-02
(PID.TID 0000.0001) %MON dynstat_vvel_mean            =   1.5005253105909E-05
(PID.TID 0000.0001) %MON dynstat_vvel_sd              =   6.1272926034481E-04
(PID.TID 0000.0001) %MON dynstat_vvel_del2            =   1.2522162572107E-06
(PID.TID 0000.0001) %MON dynstat_wvel_max             =   1.4549424925385E-03
(PID.TID 0000.0001) %MON dynstat_wvel_min             =  -1.3989838041019E-03
(PID.TID 0000.0001) %MON dynstat_wvel_mean            =   7.1545779441173E-09
(PID.TID 0000.0001) %MON dynstat_wvel_sd              =   2.3619027093326E-05
(PID.TID 0000.0001) %MON dynstat_wvel_del2            =   9.7398495281124E-08
(PID.TID 0000.0001) %MON dynstat_theta_max            =   1.2000000000000E+00
(PID.TID 0000.0001) %MON dynstat_theta_min            =  -1.0000000000000E+00
(PID.TID 0000.0001) %MON dynstat_theta_mean           =   5.6854172309177E-01
(PID.TID 0000.0001) %MON dynstat_theta_sd             =   8.6828055014261E-01
(PID.TID 0000.0001) %MON dynstat_theta_del2           =   4.0143589710929E-06
(PID.TID 0000.0001) %MON dynstat_salt_max             =   3.4700000000000E+01
(PID.TID 0000.0001) %MON dynstat_salt_min             =   3.4000000000000E+01
(PID.TID 0000.0001) %MON dynstat_salt_mean            =   3.4499030825601E+01
(PID.TID 0000.0001) %MON dynstat_salt_sd              =   2.7625120816871E-01
(PID.TID 0000.0001) %MON dynstat_salt_del2            =   1.5873901423855E-06
(PID.TID 0000.0001) %MON advcfl_uvel_max              =   3.7729748032129E-03
(PID.TID 0000.0001) %MON advcfl_vvel_max              =   2.7650458322995E-03
(PID.TID 0000.0001) %MON advcfl_wvel_max              =   7.2747124626927E-03
(PID.TID 0000.0001) %MON advcfl_W_hf_max              =   7.2747124626927E-03
(PID.TID 0000.0001) %MON pe_b_mean                    =  -8.2952381174316E-01
(PID.TID 0000.0001) %MON ke_max                       =   5.4873825242987E-04
(PID.TID 0000.0001) %MON ke_mean                      =   7.7278328179896E-07
(PID.TID 0000.0001) %MON ke_vol                       =   4.2724709841656E+12
(PID.TID 0000.0001) // =======================================================
(PID.TID 0000.0001) // End MONITOR dynamic field statistics
(PID.TID 0000.0001) // =======================================================
(PID.TID 0000.0001) // =======================================================
(PID.TID 0000.0001) // Begin OBCS MONITOR field statistics
(PID.TID 0000.0001) // =======================================================
(PID.TID 0000.0001) %MON obc_N_vVel_max               =   1.4720410648370E-05
(PID.TID 0000.0001) %MON obc_N_vVel_min               =   1.4720410648369E-05
(PID.TID 0000.0001) %MON obc_N_vVel_mean              =   1.4720410648369E-05
(PID.TID 0000.0001) %MON obc_N_vVel_sd                =   5.1524099006313E-12
(PID.TID 0000.0001) %MON obc_N_vVel_Int               =   9.7154710279237E+02
(PID.TID 0000.0001) // =======================================================
(PID.TID 0000.0001) // End OBCS MONITOR field statistics
(PID.TID 0000.0001) // =======================================================
 cg2d: Sum(rhs),rhsMax =   4.50654656228939E+00  2.99949338607331E+02
(PID.TID 0000.0001)      cg2d_init_res =   8.58692289197352E-06
(PID.TID 0000.0001)      cg2d_iters(min,last) =      -1      83
(PID.TID 0000.0001)      cg2d_last_res =   9.54166822639415E-12
(PID.TID 0000.0001) // =======================================================
(PID.TID 0000.0001) // Begin MONITOR dynamic field statistics
(PID.TID 0000.0001) // =======================================================
(PID.TID 0000.0001) %MON time_tsnumber                =                  1250
(PID.TID 0000.0001) %MON time_secondsf                =   1.2500000000000E+05
(PID.TID 0000.0001) %MON dynstat_eta_max              =   5.7986032258023E+00
(PID.TID 0000.0001) %MON dynstat_eta_min              =  -1.4187323567995E+01
(PID.TID 0000.0001) %MON dynstat_eta_mean             =  -2.5032141865960E+00
(PID.TID 0000.0001) %MON dynstat_eta_sd               =   4.9497180182055E+00
(PID.TID 0000.0001) %MON dynstat_eta_del2             =   2.0715844571206E-01
(PID.TID 0000.0001) %MON dynstat_uvel_max             =   8.2865715732723E-03
(PID.TID 0000.0001) %MON dynstat_uvel_min             =  -3.7820993668831E-02
(PID.TID 0000.0001) %MON dynstat_uvel_mean            =  -1.1253909939270E-07
(PID.TID 0000.0001) %MON dynstat_uvel_sd              =   1.0950278298606E-03
(PID.TID 0000.0001) %MON dynstat_uvel_del2            =   1.6132835792649E-06
(PID.TID 0000.0001) %MON dynstat_vvel_max             =   2.7700876864556E-02
(PID.TID 0000.0001) %MON dynstat_vvel_min             =  -1.2417063008606E-02
(PID.TID 0000.0001) %MON dynstat_vvel_mean            =   1.5032638198649E-05
(PID.TID 0000.0001) %MON dynstat_vvel_sd              =   6.1390932814823E-04
(PID.TID 0000.0001) %MON dynstat_vvel_del2            =   1.2548246845064E-06
(PID.TID 0000.0001) %MON dynstat_wvel_max             =   1.4579753101807E-03
(PID.TID 0000.0001) %MON dynstat_wvel_min             =  -1.4018561255587E-03
(PID.TID 0000.0001) %MON dynstat_wvel_mean            =   7.2005201609866E-09
(PID.TID 0000.0001) %MON dynstat_wvel_sd              =   2.3678597225155E-05
(PID.TID 0000.0001) %MON dynstat_wvel_del2            =   9.7653033312505E-08
(PID.TID 0000.0001) %MON dynstat_theta_max            =   1.2000000000000E+00
(PID.TID 0000.0001) %MON dynstat_theta_min            =  -1.0000000000000E+00
(PID.TID 0000.0001) %MON dynstat_theta_mean           =   5.6854053638156E-01
(PID.TID 0000.0001) %MON dynstat_theta_sd             =   8.6827991233022E-01
(PID.TID 0000.0001) %MON dynstat_theta_del2           =   4.0222505769553E-06
(PID.TID 0000.0001) %MON dynstat_salt_max             =   3.4700000000000E+01
(PID.TID 0000.0001) %MON dynstat_salt_min             =   3.4000000000000E+01
(PID.TID 0000.0001) %MON dynstat_salt_mean            =   3.4499030350634E+01
(PID.TID 0000.0001) %MON dynstat_salt_sd              =   2.7625096282890E-01
(PID.TID 0000.0001) %MON dynstat_salt_del2            =   1.5905517501636E-06
(PID.TID 0000.0001) %MON advcfl_uvel_max              =   3.7820993668831E-03
(PID.TID 0000.0001) %MON advcfl_vvel_max              =   2.7700876864556E-03
(PID.TID 0000.0001) %MON advcfl_wvel_max              =   7.2898765509035E-03
(PID.TID 0000.0001) %MON advcfl_W_hf_max              =   7.2898765509035E-03
(PID.TID 0000.0001) %MON pe_b_mean                    =  -8.2952520100991E-01
(PID.TID 0000.0001) %MON ke_max                       =   5.5167726790641E-04
(PID.TID 0000.0001) %MON ke_mean                      =   7.7620306261729E-07
(PID.TID 0000.0001) %MON ke_vol                       =   4.2724709459731E+12
(PID.TID 0000.0001) // =======================================================
(PID.TID 0000.0001) // End MONITOR dynamic field statistics
(PID.TID 0000.0001) // =======================================================
(PID.TID 0000.0001) // =======================================================
(PID.TID 0000.0001) // Begin OBCS MONITOR field statistics
(PID.TID 0000.0001) // =======================================================
(PID.TID 0000.0001) %MON obc_N_vVel_max               =   1.4743447866306E-05
(PID.TID 0000.0001) %MON obc_N_vVel_min               =   1.4743447866306E-05
(PID.TID 0000.0001) %MON obc_N_vVel_mean              =   1.4743447866306E-05
(PID.TID 0000.0001) %MON obc_N_vVel_sd                =   2.9162391316233E-12
(PID.TID 0000.0001) %MON obc_N_vVel_Int               =   9.7306755917618E+02
(PID.TID 0000.0001) // =======================================================
(PID.TID 0000.0001) // End OBCS MONITOR field statistics
(PID.TID 0000.0001) // =======================================================
 cg2d: Sum(rhs),rhsMax =   4.50655704367480E+00  2.99949413590747E+02
(PID.TID 0000.0001)      cg2d_init_res =   8.61263388431169E-06
(PID.TID 0000.0001)      cg2d_iters(min,last) =      -1      83
(PID.TID 0000.0001)      cg2d_last_res =   9.55358879148006E-12
(PID.TID 0000.0001) // =======================================================
(PID.TID 0000.0001) // Begin MONITOR dynamic field statistics
(PID.TID 0000.0001) // =======================================================
(PID.TID 0000.0001) %MON time_tsnumber                =                  1251
(PID.TID 0000.0001) %MON time_secondsf                =   1.2510000000000E+05
(PID.TID 0000.0001) %MON dynstat_eta_max              =   5.7985911060978E+00
(PID.TID 0000.0001) %MON dynstat_eta_min              =  -1.4187353474807E+01
(PID.TID 0000.0001) %MON dynstat_eta_mean             =  -2.5032206343769E+00
(PID.TID 0000.0001) %MON dynstat_eta_sd               =   4.9497205978482E+00
(PID.TID 0000.0001) %MON dynstat_eta_del2             =   2.0715848702618E-01
(PID.TID 0000.0001) %MON dynstat_uvel_max             =   8.3051229978004E-03
(PID.TID 0000.0001) %MON dynstat_uvel_min             =  -3.7912379490162E-02
(PID.TID 0000.0001) %MON dynstat_uvel_mean            =  -1.1253057955090E-07
(PID.TID 0000.0001) %MON dynstat_uvel_sd              =   1.0975474492917E-03
(PID.TID 0000.0001) %MON dynstat_uvel_del2            =   1.6171785180083E-06
(PID.TID 0000.0001) %MON dynstat_vvel_max             =   2.7751310566337E-02
(PID.TID 0000.0001) %MON dynstat_vvel_min             =  -1.2448773810988E-02
(PID.TID 0000.0001) %MON dynstat_vvel_mean            =   1.5061321835232E-05
(PID.TID 0000.0001) %MON dynstat_vvel_sd              =   6.1509199980327E-04
(PID.TID 0000.0001) %MON dynstat_vvel_del2            =   1.2574375151291E-06
(PID.TID 0000.0001) %MON dynstat_wvel_max             =   1.4610103581209E-03
(PID.TID 0000.0001) %MON dynstat_wvel_min             =  -1.4047306507094E-03
(PID.TID 0000.0001) %MON dynstat_wvel_mean            =   7.2444237696675E-09
(PID.TID 0000.0001) %MON dynstat_wvel_sd              =   2.3739332085285E-05
(PID.TID 0000.0001) %MON dynstat_wvel_del2            =   9.7913758898904E-08
(PID.TID 0000.0001) %MON dynstat_theta_max            =   1.2000000000000E+00
(PID.TID 0000.0001) %MON dynstat_theta_min            =  -1.0000000000000E+00
(PID.TID 0000.0001) %MON dynstat_theta_mean           =   5.6853934760252E-01
(PID.TID 0000.0001) %MON dynstat_theta_sd             =   8.6827927344918E-01
(PID.TID 0000.0001) %MON dynstat_theta_del2           =   4.0301528984364E-06
(PID.TID 0000.0001) %MON dynstat_salt_max             =   3.4700000000000E+01
(PID.TID 0000.0001) %MON dynstat_salt_min             =   3.4000000000000E+01
(PID.TID 0000.0001) %MON dynstat_salt_mean            =   3.4499029874837E+01
(PID.TID 0000.0001) %MON dynstat_salt_sd              =   2.7625071708323E-01
(PID.TID 0000.0001) %MON dynstat_salt_del2            =   1.5937176028716E-06
(PID.TID 0000.0001) %MON advcfl_uvel_max              =   3.7912379490162E-03
(PID.TID 0000.0001) %MON advcfl_vvel_max              =   2.7751310566337E-03
(PID.TID 0000.0001) %MON advcfl_wvel_max              =   7.3050517906045E-03
(PID.TID 0000.0001) %MON advcfl_W_hf_max              =   7.3050517906045E-03
(PID.TID 0000.0001) %MON pe_b_mean                    =  -8.2952659151500E-01
(PID.TID 0000.0001) %MON ke_max                       =   5.5462982332304E-04
(PID.TID 0000.0001) %MON ke_mean                      =   7.7963768405647E-07
(PID.TID 0000.0001) %MON ke_vol                       =   4.2724709077316E+12
(PID.TID 0000.0001) // =======================================================
(PID.TID 0000.0001) // End MONITOR dynamic field statistics
(PID.TID 0000.0001) // =======================================================
(PID.TID 0000.0001) // =======================================================
(PID.TID 0000.0001) // Begin OBCS MONITOR field statistics
(PID.TID 0000.0001) // =======================================================
(PID.TID 0000.0001) %MON obc_N_vVel_max               =   1.4767908940769E-05
(PID.TID 0000.0001) %MON obc_N_vVel_min               =   1.4767908940768E-05
(PID.TID 0000.0001) %MON obc_N_vVel_mean              =   1.4767908940769E-05
(PID.TID 0000.0001) %MON obc_N_vVel_sd                =  -1.2614504341434E-23
(PID.TID 0000.0001) %MON obc_N_vVel_Int               =   9.7468199009073E+02
(PID.TID 0000.0001) // =======================================================
(PID.TID 0000.0001) // End OBCS MONITOR field statistics
(PID.TID 0000.0001) // =======================================================
 cg2d: Sum(rhs),rhsMax =   4.50656753649717E+00  2.99949489118767E+02
(PID.TID 0000.0001)      cg2d_init_res =   8.63761740250282E-06
(PID.TID 0000.0001)      cg2d_iters(min,last) =      -1      83
(PID.TID 0000.0001)      cg2d_last_res =   9.56327525882099E-12
(PID.TID 0000.0001) // =======================================================
(PID.TID 0000.0001) // Begin MONITOR dynamic field statistics
(PID.TID 0000.0001) // =======================================================
(PID.TID 0000.0001) %MON time_tsnumber                =                  1252
(PID.TID 0000.0001) %MON time_secondsf                =   1.2520000000000E+05
(PID.TID 0000.0001) %MON dynstat_eta_max              =   5.7985789674284E+00
(PID.TID 0000.0001) %MON dynstat_eta_min              =  -1.4187383419817E+01
(PID.TID 0000.0001) %MON dynstat_eta_mean             =  -2.5032270930584E+00
(PID.TID 0000.0001) %MON dynstat_eta_sd               =   4.9497231824631E+00
(PID.TID 0000.0001) %MON dynstat_eta_del2             =   2.0715852841386E-01
(PID.TID 0000.0001) %MON dynstat_uvel_max             =   8.3237065719892E-03
(PID.TID 0000.0001) %MON dynstat_uvel_min             =  -3.8003905357551E-02
(PID.TID 0000.0001) %MON dynstat_uvel_mean            =  -1.1247745183976E-07
(PID.TID 0000.0001) %MON dynstat_uvel_sd              =   1.1000723126943E-03
(PID.TID 0000.0001) %MON dynstat_uvel_del2            =   1.6210831636277E-06
(PID.TID 0000.0001) %MON dynstat_vvel_max             =   2.7801759088773E-02
(PID.TID 0000.0001) %MON dynstat_vvel_min             =  -1.2480555739623E-02
(PID.TID 0000.0001) %MON dynstat_vvel_mean            =   1.5090816937387E-05
(PID.TID 0000.0001) %MON dynstat_vvel_sd              =   6.1627703416893E-04
(PID.TID 0000.0001) %MON dynstat_vvel_del2            =   1.2600523668487E-06
(PID.TID 0000.0001) %MON dynstat_wvel_max             =   1.4640476224352E-03
(PID.TID 0000.0001) %MON dynstat_wvel_min             =  -1.4076073631156E-03
(PID.TID 0000.0001) %MON dynstat_wvel_mean            =   7.2855703181598E-09
(PID.TID 0000.0001) %MON dynstat_wvel_sd              =   2.3799760519932E-05
(PID.TID 0000.0001) %MON dynstat_wvel_del2            =   9.8172717919568E-08
(PID.TID 0000.0001) %MON dynstat_theta_max            =   1.2000000000000E+00
(PID.TID 0000.0001) %MON dynstat_theta_min            =  -1.0000000000000E+00
(PID.TID 0000.0001) %MON dynstat_theta_mean           =   5.6853815675162E-01
(PID.TID 0000.0001) %MON dynstat_theta_sd             =   8.6827863349567E-01
(PID.TID 0000.0001) %MON dynstat_theta_del2           =   4.0380681251129E-06
(PID.TID 0000.0001) %MON dynstat_salt_max             =   3.4700000000000E+01
(PID.TID 0000.0001) %MON dynstat_salt_min             =   3.4000000000000E+01
(PID.TID 0000.0001) %MON dynstat_salt_mean            =   3.4499029398210E+01
(PID.TID 0000.0001) %MON dynstat_salt_sd              =   2.7625047093017E-01
(PID.TID 0000.0001) %MON dynstat_salt_del2            =   1.5968881725708E-06
(PID.TID 0000.0001) %MON advcfl_uvel_max              =   3.8003905357551E-03
(PID.TID 0000.0001) %MON advcfl_vvel_max              =   2.7801759088773E-03
(PID.TID 0000.0001) %MON advcfl_wvel_max              =   7.3202381121760E-03
(PID.TID 0000.0001) %MON advcfl_W_hf_max              =   7.3202381121760E-03
(PID.TID 0000.0001) %MON pe_b_mean                    =  -8.2952798341863E-01
(PID.TID 0000.0001) %MON ke_max                       =   5.5759596368119E-04
(PID.TID 0000.0001) %MON ke_mean                      =   7.8308705013899E-07
(PID.TID 0000.0001) %MON ke_vol                       =   4.2724708694318E+12
(PID.TID 0000.0001) // =======================================================
(PID.TID 0000.0001) // End MONITOR dynamic field statistics
(PID.TID 0000.0001) // =======================================================
(PID.TID 0000.0001) // =======================================================
(PID.TID 0000.0001) // Begin OBCS MONITOR field statistics
(PID.TID 0000.0001) // =======================================================
(PID.TID 0000.0001) %MON obc_N_vVel_max               =   1.4793376038506E-05
(PID.TID 0000.0001) %MON obc_N_vVel_min               =   1.4793376038506E-05
(PID.TID 0000.0001) %MON obc_N_vVel_mean              =   1.4793376038506E-05
(PID.TID 0000.0001) %MON obc_N_vVel_sd                =  -3.4121200267812E-24
(PID.TID 0000.0001) %MON obc_N_vVel_Int               =   9.7636281854138E+02
(PID.TID 0000.0001) // =======================================================
(PID.TID 0000.0001) // End OBCS MONITOR field statistics
(PID.TID 0000.0001) // =======================================================
 cg2d: Sum(rhs),rhsMax =   4.50657804211281E+00  2.99949565173750E+02
(PID.TID 0000.0001)      cg2d_init_res =   8.66156037469111E-06
(PID.TID 0000.0001)      cg2d_iters(min,last) =      -1      83
(PID.TID 0000.0001)      cg2d_last_res =   9.57089381385264E-12
(PID.TID 0000.0001) // =======================================================
(PID.TID 0000.0001) // Begin MONITOR dynamic field statistics
(PID.TID 0000.0001) // =======================================================
(PID.TID 0000.0001) %MON time_tsnumber                =                  1253
(PID.TID 0000.0001) %MON time_secondsf                =   1.2530000000000E+05
(PID.TID 0000.0001) %MON dynstat_eta_max              =   5.7985668098934E+00
(PID.TID 0000.0001) %MON dynstat_eta_min              =  -1.4187413402125E+01
(PID.TID 0000.0001) %MON dynstat_eta_mean             =  -2.5032335632469E+00
(PID.TID 0000.0001) %MON dynstat_eta_sd               =   4.9497257718487E+00
(PID.TID 0000.0001) %MON dynstat_eta_del2             =   2.0715856987496E-01
(PID.TID 0000.0001) %MON dynstat_uvel_max             =   8.3423223700620E-03
(PID.TID 0000.0001) %MON dynstat_uvel_min             =  -3.8095571133349E-02
(PID.TID 0000.0001) %MON dynstat_uvel_mean            =  -1.1238921048456E-07
(PID.TID 0000.0001) %MON dynstat_uvel_sd              =   1.1026024308176E-03
(PID.TID 0000.0001) %MON dynstat_uvel_del2            =   1.6249975531718E-06
(PID.TID 0000.0001) %MON dynstat_vvel_max             =   2.7852222089533E-02
(PID.TID 0000.0001) %MON dynstat_vvel_min             =  -1.2512409041191E-02
(PID.TID 0000.0001) %MON dynstat_vvel_mean            =   1.5120625167013E-05
(PID.TID 0000.0001) %MON dynstat_vvel_sd              =   6.1746420095961E-04
(PID.TID 0000.0001) %MON dynstat_vvel_del2            =   1.2626670742923E-06
(PID.TID 0000.0001) %MON dynstat_wvel_max             =   1.4670870891508E-03
(PID.TID 0000.0001) %MON dynstat_wvel_min             =  -1.4104862461707E-03
(PID.TID 0000.0001) %MON dynstat_wvel_mean            =   7.3232906876214E-09
(PID.TID 0000.0001) %MON dynstat_wvel_sd              =   2.3858495630689E-05
(PID.TID 0000.0001) %MON dynstat_wvel_del2            =   9.8422432209311E-08
(PID.TID 0000.0001) %MON dynstat_theta_max            =   1.2000000000000E+00
(PID.TID 0000.0001) %MON dynstat_theta_min            =  -1.0000000000000E+00
(PID.TID 0000.0001) %MON dynstat_theta_mean           =   5.6853696382574E-01
(PID.TID 0000.0001) %MON dynstat_theta_sd             =   8.6827799246838E-01
(PID.TID 0000.0001) %MON dynstat_theta_del2           =   4.0459992201439E-06
(PID.TID 0000.0001) %MON dynstat_salt_max             =   3.4700000000000E+01
(PID.TID 0000.0001) %MON dynstat_salt_min             =   3.4000000000000E+01
(PID.TID 0000.0001) %MON dynstat_salt_mean            =   3.4499028920751E+01
(PID.TID 0000.0001) %MON dynstat_salt_sd              =   2.7625022436953E-01
(PID.TID 0000.0001) %MON dynstat_salt_del2            =   1.6000643923955E-06
(PID.TID 0000.0001) %MON advcfl_uvel_max              =   3.8095571133349E-03
(PID.TID 0000.0001) %MON advcfl_vvel_max              =   2.7852222089533E-03
(PID.TID 0000.0001) %MON advcfl_wvel_max              =   7.3354354457542E-03
(PID.TID 0000.0001) %MON advcfl_W_hf_max              =   7.3354354457542E-03
(PID.TID 0000.0001) %MON pe_b_mean                    =  -8.2952937675392E-01
(PID.TID 0000.0001) %MON ke_max                       =   5.6057573411976E-04
(PID.TID 0000.0001) %MON ke_mean                      =   7.8655107022120E-07
(PID.TID 0000.0001) %MON ke_vol                       =   4.2724708310672E+12
(PID.TID 0000.0001) // =======================================================
(PID.TID 0000.0001) // End MONITOR dynamic field statistics
(PID.TID 0000.0001) // =======================================================
(PID.TID 0000.0001) // =======================================================
(PID.TID 0000.0001) // Begin OBCS MONITOR field statistics
(PID.TID 0000.0001) // =======================================================
(PID.TID 0000.0001) %MON obc_N_vVel_max               =   1.4819416588830E-05
(PID.TID 0000.0001) %MON obc_N_vVel_min               =   1.4819416588830E-05
(PID.TID 0000.0001) %MON obc_N_vVel_mean              =   1.4819416588830E-05
(PID.TID 0000.0001) %MON obc_N_vVel_sd                =  -1.4811702843528E-23
(PID.TID 0000.0001) %MON obc_N_vVel_Int               =   9.7808149486277E+02
(PID.TID 0000.0001) // =======================================================
(PID.TID 0000.0001) // End OBCS MONITOR field statistics
(PID.TID 0000.0001) // =======================================================
 cg2d: Sum(rhs),rhsMax =   4.50658856111430E+00  2.99949641730307E+02
(PID.TID 0000.0001)      cg2d_init_res =   8.68417103392345E-06
(PID.TID 0000.0001)      cg2d_iters(min,last) =      -1      83
(PID.TID 0000.0001)      cg2d_last_res =   9.57668807343485E-12
(PID.TID 0000.0001) // =======================================================
(PID.TID 0000.0001) // Begin MONITOR dynamic field statistics
(PID.TID 0000.0001) // =======================================================
(PID.TID 0000.0001) %MON time_tsnumber                =                  1254
(PID.TID 0000.0001) %MON time_secondsf                =   1.2540000000000E+05
(PID.TID 0000.0001) %MON dynstat_eta_max              =   5.7985546343762E+00
(PID.TID 0000.0001) %MON dynstat_eta_min              =  -1.4187443420269E+01
(PID.TID 0000.0001) %MON dynstat_eta_mean             =  -2.5032400450595E+00
(PID.TID 0000.0001) %MON dynstat_eta_sd               =   4.9497283656366E+00
(PID.TID 0000.0001) %MON dynstat_eta_del2             =   2.0715861140873E-01
(PID.TID 0000.0001) %MON dynstat_uvel_max             =   8.3609704648921E-03
(PID.TID 0000.0001) %MON dynstat_uvel_min             =  -3.8187376680431E-02
(PID.TID 0000.0001) %MON dynstat_uvel_mean            =  -1.1227581377974E-07
(PID.TID 0000.0001) %MON dynstat_uvel_sd              =   1.1051378140272E-03
(PID.TID 0000.0001) %MON dynstat_uvel_del2            =   1.6289217177846E-06
(PID.TID 0000.0001) %MON dynstat_vvel_max             =   2.7902699228450E-02
(PID.TID 0000.0001) %MON dynstat_vvel_min             =  -1.2544333962513E-02
(PID.TID 0000.0001) %MON dynstat_vvel_mean            =   1.5150245486866E-05
(PID.TID 0000.0001) %MON dynstat_vvel_sd              =   6.1865329665090E-04
(PID.TID 0000.0001) %MON dynstat_vvel_del2            =   1.2652798250896E-06
(PID.TID 0000.0001) %MON dynstat_wvel_max             =   1.4701287442750E-03
(PID.TID 0000.0001) %MON dynstat_wvel_min             =  -1.4133672832001E-03
(PID.TID 0000.0001) %MON dynstat_wvel_mean            =   7.3569784795984E-09
(PID.TID 0000.0001) %MON dynstat_wvel_sd              =   2.3914328881840E-05
(PID.TID 0000.0001) %MON dynstat_wvel_del2            =   9.8656411610313E-08
(PID.TID 0000.0001) %MON dynstat_theta_max            =   1.2000000000000E+00
(PID.TID 0000.0001) %MON dynstat_theta_min            =  -1.0000000000000E+00
(PID.TID 0000.0001) %MON dynstat_theta_mean           =   5.6853576882159E-01
(PID.TID 0000.0001) %MON dynstat_theta_sd             =   8.6827735036824E-01
(PID.TID 0000.0001) %MON dynstat_theta_del2           =   4.0539484116008E-06
(PID.TID 0000.0001) %MON dynstat_salt_max             =   3.4700000000000E+01
(PID.TID 0000.0001) %MON dynstat_salt_min             =   3.4000000000000E+01
(PID.TID 0000.0001) %MON dynstat_salt_mean            =   3.4499028442460E+01
(PID.TID 0000.0001) %MON dynstat_salt_sd              =   2.7624997740151E-01
(PID.TID 0000.0001) %MON dynstat_salt_del2            =   1.6032468921458E-06
(PID.TID 0000.0001) %MON advcfl_uvel_max              =   3.8187376680431E-03
(PID.TID 0000.0001) %MON advcfl_vvel_max              =   2.7902699228450E-03
(PID.TID 0000.0001) %MON advcfl_wvel_max              =   7.3506437213751E-03
(PID.TID 0000.0001) %MON advcfl_W_hf_max              =   7.3506437213751E-03
(PID.TID 0000.0001) %MON pe_b_mean                    =  -8.2953077142687E-01
(PID.TID 0000.0001) %MON ke_max                       =   5.6356917989124E-04
(PID.TID 0000.0001) %MON ke_mean                      =   7.9002966880962E-07
(PID.TID 0000.0001) %MON ke_vol                       =   4.2724707926343E+12
(PID.TID 0000.0001) // =======================================================
(PID.TID 0000.0001) // End MONITOR dynamic field statistics
(PID.TID 0000.0001) // =======================================================
(PID.TID 0000.0001) // =======================================================
(PID.TID 0000.0001) // Begin OBCS MONITOR field statistics
(PID.TID 0000.0001) // =======================================================
(PID.TID 0000.0001) %MON obc_N_vVel_max               =   1.4845590617236E-05
(PID.TID 0000.0001) %MON obc_N_vVel_min               =   1.4845590617235E-05
(PID.TID 0000.0001) %MON obc_N_vVel_mean              =   1.4845590617236E-05
(PID.TID 0000.0001) %MON obc_N_vVel_sd                =  -5.3508245874524E-24
(PID.TID 0000.0001) %MON obc_N_vVel_Int               =   9.7980898073756E+02
(PID.TID 0000.0001) // =======================================================
(PID.TID 0000.0001) // End OBCS MONITOR field statistics
(PID.TID 0000.0001) // =======================================================
 cg2d: Sum(rhs),rhsMax =   4.50659909332250E+00  2.99949718755869E+02
(PID.TID 0000.0001)      cg2d_init_res =   8.70519938231347E-06
(PID.TID 0000.0001)      cg2d_iters(min,last) =      -1      83
(PID.TID 0000.0001)      cg2d_last_res =   9.58084900105933E-12
(PID.TID 0000.0001) // =======================================================
(PID.TID 0000.0001) // Begin MONITOR dynamic field statistics
(PID.TID 0000.0001) // =======================================================
(PID.TID 0000.0001) %MON time_tsnumber                =                  1255
(PID.TID 0000.0001) %MON time_secondsf                =   1.2550000000000E+05
(PID.TID 0000.0001) %MON dynstat_eta_max              =   5.7985424425196E+00
(PID.TID 0000.0001) %MON dynstat_eta_min              =  -1.4187473472252E+01
(PID.TID 0000.0001) %MON dynstat_eta_mean             =  -2.5032465381251E+00
(PID.TID 0000.0001) %MON dynstat_eta_sd               =   4.9497309633047E+00
(PID.TID 0000.0001) %MON dynstat_eta_del2             =   2.0715865301449E-01
(PID.TID 0000.0001) %MON dynstat_uvel_max             =   8.3796509271110E-03
(PID.TID 0000.0001) %MON dynstat_uvel_min             =  -3.8279321861125E-02
(PID.TID 0000.0001) %MON dynstat_uvel_mean            =  -1.1214664843303E-07
(PID.TID 0000.0001) %MON dynstat_uvel_sd              =   1.1076784723751E-03
(PID.TID 0000.0001) %MON dynstat_uvel_del2            =   1.6328556867576E-06
(PID.TID 0000.0001) %MON dynstat_vvel_max             =   2.7953190163967E-02
(PID.TID 0000.0001) %MON dynstat_vvel_min             =  -1.2576330747804E-02
(PID.TID 0000.0001) %MON dynstat_vvel_mean            =   1.5179182734629E-05
(PID.TID 0000.0001) %MON dynstat_vvel_sd              =   6.1984415783037E-04
(PID.TID 0000.0001) %MON dynstat_vvel_del2            =   1.2678892676595E-06
(PID.TID 0000.0001) %MON dynstat_wvel_max             =   1.4731725737999E-03
(PID.TID 0000.0001) %MON dynstat_wvel_min             =  -1.4162504577065E-03
(PID.TID 0000.0001) %MON dynstat_wvel_mean            =   7.3860983164877E-09
(PID.TID 0000.0001) %MON dynstat_wvel_sd              =   2.3966308742858E-05
(PID.TID 0000.0001) %MON dynstat_wvel_del2            =   9.8869579254442E-08
(PID.TID 0000.0001) %MON dynstat_theta_max            =   1.2000000000000E+00
(PID.TID 0000.0001) %MON dynstat_theta_min            =  -1.0000000000000E+00
(PID.TID 0000.0001) %MON dynstat_theta_mean           =   5.6853457173577E-01
(PID.TID 0000.0001) %MON dynstat_theta_sd             =   8.6827670719617E-01
(PID.TID 0000.0001) %MON dynstat_theta_del2           =   4.0619175716755E-06
(PID.TID 0000.0001) %MON dynstat_salt_max             =   3.4700000000000E+01
(PID.TID 0000.0001) %MON dynstat_salt_min             =   3.4000000000000E+01
(PID.TID 0000.0001) %MON dynstat_salt_mean            =   3.4499027963334E+01
(PID.TID 0000.0001) %MON dynstat_salt_sd              =   2.7624973002620E-01
(PID.TID 0000.0001) %MON dynstat_salt_del2            =   1.6064361738681E-06
(PID.TID 0000.0001) %MON advcfl_uvel_max              =   3.8279321861125E-03
(PID.TID 0000.0001) %MON advcfl_vvel_max              =   2.7953190163967E-03
(PID.TID 0000.0001) %MON advcfl_wvel_max              =   7.3658628689993E-03
(PID.TID 0000.0001) %MON advcfl_W_hf_max              =   7.3658628689993E-03
(PID.TID 0000.0001) %MON pe_b_mean                    =  -8.2953216721845E-01
(PID.TID 0000.0001) %MON ke_max                       =   5.6657634630056E-04
(PID.TID 0000.0001) %MON ke_mean                      =   7.9352279419025E-07
(PID.TID 0000.0001) %MON ke_vol                       =   4.2724707541323E+12
(PID.TID 0000.0001) // =======================================================
(PID.TID 0000.0001) // End MONITOR dynamic field statistics
(PID.TID 0000.0001) // =======================================================
(PID.TID 0000.0001) // =======================================================
(PID.TID 0000.0001) // Begin OBCS MONITOR field statistics
(PID.TID 0000.0001) // =======================================================
(PID.TID 0000.0001) %MON obc_N_vVel_max               =   1.4871458328801E-05
(PID.TID 0000.0001) %MON obc_N_vVel_min               =   1.4871458328801E-05
(PID.TID 0000.0001) %MON obc_N_vVel_mean              =   1.4871458328801E-05
(PID.TID 0000.0001) %MON obc_N_vVel_sd                =   3.6803644562130E-12
(PID.TID 0000.0001) %MON obc_N_vVel_Int               =   9.8151624970088E+02
(PID.TID 0000.0001) // =======================================================
(PID.TID 0000.0001) // End OBCS MONITOR field statistics
(PID.TID 0000.0001) // =======================================================
 cg2d: Sum(rhs),rhsMax =   4.50660963779184E+00  2.99949796211363E+02
(PID.TID 0000.0001)      cg2d_init_res =   8.72443183427835E-06
(PID.TID 0000.0001)      cg2d_iters(min,last) =      -1      83
(PID.TID 0000.0001)      cg2d_last_res =   9.58362263859275E-12
(PID.TID 0000.0001) // =======================================================
(PID.TID 0000.0001) // Begin MONITOR dynamic field statistics
(PID.TID 0000.0001) // =======================================================
(PID.TID 0000.0001) %MON time_tsnumber                =                  1256
(PID.TID 0000.0001) %MON time_secondsf                =   1.2560000000000E+05
(PID.TID 0000.0001) %MON dynstat_eta_max              =   5.7985302367253E+00
(PID.TID 0000.0001) %MON dynstat_eta_min              =  -1.4187503555548E+01
(PID.TID 0000.0001) %MON dynstat_eta_mean             =  -2.5032530415923E+00
(PID.TID 0000.0001) %MON dynstat_eta_sd               =   4.9497335641870E+00
(PID.TID 0000.0001) %MON dynstat_eta_del2             =   2.0715869469161E-01
(PID.TID 0000.0001) %MON dynstat_uvel_max             =   8.3983638251581E-03
(PID.TID 0000.0001) %MON dynstat_uvel_min             =  -3.8371406535681E-02
(PID.TID 0000.0001) %MON dynstat_uvel_mean            =  -1.1200963564192E-07
(PID.TID 0000.0001) %MON dynstat_uvel_sd              =   1.1102244155843E-03
(PID.TID 0000.0001) %MON dynstat_uvel_del2            =   1.6367994872853E-06
(PID.TID 0000.0001) %MON dynstat_vvel_max             =   2.8003694555420E-02
(PID.TID 0000.0001) %MON dynstat_vvel_min             =  -1.2608399635399E-02
(PID.TID 0000.0001) %MON dynstat_vvel_mean            =   1.5206956092294E-05
(PID.TID 0000.0001) %MON dynstat_vvel_sd              =   6.2103667156471E-04
(PID.TID 0000.0001) %MON dynstat_vvel_del2            =   1.2704945841488E-06
(PID.TID 0000.0001) %MON dynstat_wvel_max             =   1.4762185636816E-03
(PID.TID 0000.0001) %MON dynstat_wvel_min             =  -1.4191357548169E-03
(PID.TID 0000.0001) %MON dynstat_wvel_mean            =   7.4101965158508E-09
(PID.TID 0000.0001) %MON dynstat_wvel_sd              =   2.4013798914931E-05
(PID.TID 0000.0001) %MON dynstat_wvel_del2            =   9.9058577154372E-08
(PID.TID 0000.0001) %MON dynstat_theta_max            =   1.2000000000000E+00
(PID.TID 0000.0001) %MON dynstat_theta_min            =  -1.0000000000000E+00
(PID.TID 0000.0001) %MON dynstat_theta_mean           =   5.6853337256479E-01
(PID.TID 0000.0001) %MON dynstat_theta_sd             =   8.6827606295119E-01
(PID.TID 0000.0001) %MON dynstat_theta_del2           =   4.0699076871639E-06
(PID.TID 0000.0001) %MON dynstat_salt_max             =   3.4700000000000E+01
(PID.TID 0000.0001) %MON dynstat_salt_min             =   3.4000000000000E+01
(PID.TID 0000.0001) %MON dynstat_salt_mean            =   3.4499027483372E+01
(PID.TID 0000.0001) %MON dynstat_salt_sd              =   2.7624948224349E-01
(PID.TID 0000.0001) %MON dynstat_salt_del2            =   1.6096325535004E-06
(PID.TID 0000.0001) %MON advcfl_uvel_max              =   3.8371406535681E-03
(PID.TID 0000.0001) %MON advcfl_vvel_max              =   2.8003694555420E-03
(PID.TID 0000.0001) %MON advcfl_wvel_max              =   7.3810928184079E-03
(PID.TID 0000.0001) %MON advcfl_W_hf_max              =   7.3810928184079E-03
(PID.TID 0000.0001) %MON pe_b_mean                    =  -8.2953356378889E-01
(PID.TID 0000.0001) %MON ke_max                       =   5.6959727863295E-04
(PID.TID 0000.0001) %MON ke_mean                      =   7.9703042521200E-07
(PID.TID 0000.0001) %MON ke_vol                       =   4.2724707155635E+12
(PID.TID 0000.0001) // =======================================================
(PID.TID 0000.0001) // End MONITOR dynamic field statistics
(PID.TID 0000.0001) // =======================================================
(PID.TID 0000.0001) // =======================================================
(PID.TID 0000.0001) // Begin OBCS MONITOR field statistics
(PID.TID 0000.0001) // =======================================================
(PID.TID 0000.0001) %MON obc_N_vVel_max               =   1.4896587500763E-05
(PID.TID 0000.0001) %MON obc_N_vVel_min               =   1.4896587500763E-05
(PID.TID 0000.0001) %MON obc_N_vVel_mean              =   1.4896587500763E-05
(PID.TID 0000.0001) %MON obc_N_vVel_sd                =   2.6467311560788E-12
(PID.TID 0000.0001) %MON obc_N_vVel_Int               =   9.8317477505038E+02
(PID.TID 0000.0001) // =======================================================
(PID.TID 0000.0001) // End OBCS MONITOR field statistics
(PID.TID 0000.0001) // =======================================================
 cg2d: Sum(rhs),rhsMax =   4.50662019282774E+00  2.99949874052024E+02
(PID.TID 0000.0001)      cg2d_init_res =   8.74170657481393E-06
(PID.TID 0000.0001)      cg2d_iters(min,last) =      -1      83
(PID.TID 0000.0001)      cg2d_last_res =   9.58517272832765E-12
(PID.TID 0000.0001) // =======================================================
(PID.TID 0000.0001) // Begin MONITOR dynamic field statistics
(PID.TID 0000.0001) // =======================================================
(PID.TID 0000.0001) %MON time_tsnumber                =                  1257
(PID.TID 0000.0001) %MON time_secondsf                =   1.2570000000000E+05
(PID.TID 0000.0001) %MON dynstat_eta_max              =   5.7985180201345E+00
(PID.TID 0000.0001) %MON dynstat_eta_min              =  -1.4187533667148E+01
(PID.TID 0000.0001) %MON dynstat_eta_mean             =  -2.5032595541463E+00
(PID.TID 0000.0001) %MON dynstat_eta_sd               =   4.9497361674813E+00
(PID.TID 0000.0001) %MON dynstat_eta_del2             =   2.0715873643922E-01
(PID.TID 0000.0001) %MON dynstat_uvel_max             =   8.4171092249221E-03
(PID.TID 0000.0001) %MON dynstat_uvel_min             =  -3.8463630561900E-02
(PID.TID 0000.0001) %MON dynstat_uvel_mean            =  -1.1187064461545E-07
(PID.TID 0000.0001) %MON dynstat_uvel_sd              =   1.1127756530582E-03
(PID.TID 0000.0001) %MON dynstat_uvel_del2            =   1.6407531440262E-06
(PID.TID 0000.0001) %MON dynstat_vvel_max             =   2.8054212064279E-02
(PID.TID 0000.0001) %MON dynstat_vvel_min             =  -1.2640540855617E-02
(PID.TID 0000.0001) %MON dynstat_vvel_mean            =   1.5233107308775E-05
(PID.TID 0000.0001) %MON dynstat_vvel_sd              =   6.2223078209763E-04
(PID.TID 0000.0001) %MON dynstat_vvel_del2            =   1.2730955263830E-06
(PID.TID 0000.0001) %MON dynstat_wvel_max             =   1.4792666998425E-03
(PID.TID 0000.0001) %MON dynstat_wvel_min             =  -1.4220231617164E-03
(PID.TID 0000.0001) %MON dynstat_wvel_mean            =   7.4289088356731E-09
(PID.TID 0000.0001) %MON dynstat_wvel_sd              =   2.4056513244258E-05
(PID.TID 0000.0001) %MON dynstat_wvel_del2            =   9.9221942270064E-08
(PID.TID 0000.0001) %MON dynstat_theta_max            =   1.2000000000000E+00
(PID.TID 0000.0001) %MON dynstat_theta_min            =  -1.0000000000000E+00
(PID.TID 0000.0001) %MON dynstat_theta_mean           =   5.6853217130505E-01
(PID.TID 0000.0001) %MON dynstat_theta_sd             =   8.6827541763389E-01
(PID.TID 0000.0001) %MON dynstat_theta_del2           =   4.0779196812303E-06
(PID.TID 0000.0001) %MON dynstat_salt_max             =   3.4700000000000E+01
(PID.TID 0000.0001) %MON dynstat_salt_min             =   3.4000000000000E+01
(PID.TID 0000.0001) %MON dynstat_salt_mean            =   3.4499027002573E+01
(PID.TID 0000.0001) %MON dynstat_salt_sd              =   2.7624923405341E-01
(PID.TID 0000.0001) %MON dynstat_salt_del2            =   1.6128362475820E-06
(PID.TID 0000.0001) %MON advcfl_uvel_max              =   3.8463630561900E-03
(PID.TID 0000.0001) %MON advcfl_vvel_max              =   2.8054212064279E-03
(PID.TID 0000.0001) %MON advcfl_wvel_max              =   7.3963334992123E-03
(PID.TID 0000.0001) %MON advcfl_W_hf_max              =   7.3963334992123E-03
(PID.TID 0000.0001) %MON pe_b_mean                    =  -8.2953496068401E-01
(PID.TID 0000.0001) %MON ke_max                       =   5.7263202214088E-04
(PID.TID 0000.0001) %MON ke_mean                      =   8.0055257588981E-07
(PID.TID 0000.0001) %MON ke_vol                       =   4.2724706769329E+12
(PID.TID 0000.0001) // =======================================================
(PID.TID 0000.0001) // End MONITOR dynamic field statistics
(PID.TID 0000.0001) // =======================================================
(PID.TID 0000.0001) // =======================================================
(PID.TID 0000.0001) // Begin OBCS MONITOR field statistics
(PID.TID 0000.0001) // =======================================================
(PID.TID 0000.0001) %MON obc_N_vVel_max               =   1.4920560894605E-05
(PID.TID 0000.0001) %MON obc_N_vVel_min               =   1.4920560894604E-05
(PID.TID 0000.0001) %MON obc_N_vVel_mean              =   1.4920560894604E-05
(PID.TID 0000.0001) %MON obc_N_vVel_sd                =   4.9293438197944E-12
(PID.TID 0000.0001) %MON obc_N_vVel_Int               =   9.8475701904387E+02
(PID.TID 0000.0001) // =======================================================
(PID.TID 0000.0001) // End OBCS MONITOR field statistics
(PID.TID 0000.0001) // =======================================================
 cg2d: Sum(rhs),rhsMax =   4.50663075601663E+00  2.99949952228256E+02
(PID.TID 0000.0001)      cg2d_init_res =   8.75691004117070E-06
(PID.TID 0000.0001)      cg2d_iters(min,last) =      -1      83
(PID.TID 0000.0001)      cg2d_last_res =   9.58564295891814E-12
(PID.TID 0000.0001) // =======================================================
(PID.TID 0000.0001) // Begin MONITOR dynamic field statistics
(PID.TID 0000.0001) // =======================================================
(PID.TID 0000.0001) %MON time_tsnumber                =                  1258
(PID.TID 0000.0001) %MON time_secondsf                =   1.2580000000000E+05
(PID.TID 0000.0001) %MON dynstat_eta_max              =   5.7985057965841E+00
(PID.TID 0000.0001) %MON dynstat_eta_min              =  -1.4187563803584E+01
(PID.TID 0000.0001) %MON dynstat_eta_mean             =  -2.5032660740325E+00
(PID.TID 0000.0001) %MON dynstat_eta_sd               =   4.9497387722667E+00
(PID.TID 0000.0001) %MON dynstat_eta_del2             =   2.0715877825636E-01
(PID.TID 0000.0001) %MON dynstat_uvel_max             =   8.4358871883090E-03
(PID.TID 0000.0001) %MON dynstat_uvel_min             =  -3.8555993795705E-02
(PID.TID 0000.0001) %MON dynstat_uvel_mean            =  -1.1173322661320E-07
(PID.TID 0000.0001) %MON dynstat_uvel_sd              =   1.1153321939168E-03
(PID.TID 0000.0001) %MON dynstat_uvel_del2            =   1.6447166790444E-06
(PID.TID 0000.0001) %MON dynstat_vvel_max             =   2.8104742355461E-02
(PID.TID 0000.0001) %MON dynstat_vvel_min             =  -1.2672754629888E-02
(PID.TID 0000.0001) %MON dynstat_vvel_mean            =   1.5257208523560E-05
(PID.TID 0000.0001) %MON dynstat_vvel_sd              =   6.2342649344888E-04
(PID.TID 0000.0001) %MON dynstat_vvel_del2            =   1.2756924116945E-06
(PID.TID 0000.0001) %MON dynstat_wvel_max             =   1.4823169682150E-03
(PID.TID 0000.0001) %MON dynstat_wvel_min             =  -1.4249126655848E-03
(PID.TID 0000.0001) %MON dynstat_wvel_mean            =   7.4419666712259E-09
(PID.TID 0000.0001) %MON dynstat_wvel_sd              =   2.4094525802484E-05
(PID.TID 0000.0001) %MON dynstat_wvel_del2            =   9.9360146093468E-08
(PID.TID 0000.0001) %MON dynstat_theta_max            =   1.2000000000000E+00
(PID.TID 0000.0001) %MON dynstat_theta_min            =  -1.0000000000000E+00
(PID.TID 0000.0001) %MON dynstat_theta_mean           =   5.6853096795276E-01
(PID.TID 0000.0001) %MON dynstat_theta_sd             =   8.6827477124678E-01
(PID.TID 0000.0001) %MON dynstat_theta_del2           =   4.0859539418933E-06
(PID.TID 0000.0001) %MON dynstat_salt_max             =   3.4700000000000E+01
(PID.TID 0000.0001) %MON dynstat_salt_min             =   3.4000000000000E+01
(PID.TID 0000.0001) %MON dynstat_salt_mean            =   3.4499026520935E+01
(PID.TID 0000.0001) %MON dynstat_salt_sd              =   2.7624898545682E-01
(PID.TID 0000.0001) %MON dynstat_salt_del2            =   1.6160474781302E-06
(PID.TID 0000.0001) %MON advcfl_uvel_max              =   3.8555993795705E-03
(PID.TID 0000.0001) %MON advcfl_vvel_max              =   2.8104742355461E-03
(PID.TID 0000.0001) %MON advcfl_wvel_max              =   7.4115848410751E-03
(PID.TID 0000.0001) %MON advcfl_W_hf_max              =   7.4115848410751E-03
(PID.TID 0000.0001) %MON pe_b_mean                    =  -8.2953635734321E-01
(PID.TID 0000.0001) %MON ke_max                       =   5.7568062159440E-04
(PID.TID 0000.0001) %MON ke_mean                      =   8.0408929752919E-07
(PID.TID 0000.0001) %MON ke_vol                       =   4.2724706382484E+12
(PID.TID 0000.0001) // =======================================================
(PID.TID 0000.0001) // End MONITOR dynamic field statistics
(PID.TID 0000.0001) // =======================================================
(PID.TID 0000.0001) // =======================================================
(PID.TID 0000.0001) // Begin OBCS MONITOR field statistics
(PID.TID 0000.0001) // =======================================================
(PID.TID 0000.0001) %MON obc_N_vVel_max               =   1.4942983352819E-05
(PID.TID 0000.0001) %MON obc_N_vVel_min               =   1.4942983352819E-05
(PID.TID 0000.0001) %MON obc_N_vVel_mean              =   1.4942983352819E-05
(PID.TID 0000.0001) %MON obc_N_vVel_sd                =  -3.7740115447732E-24
(PID.TID 0000.0001) %MON obc_N_vVel_Int               =   9.8623690128604E+02
(PID.TID 0000.0001) // =======================================================
(PID.TID 0000.0001) // End OBCS MONITOR field statistics
(PID.TID 0000.0001) // =======================================================
 cg2d: Sum(rhs),rhsMax =   4.50664132427124E+00  2.99950030686539E+02
(PID.TID 0000.0001)      cg2d_init_res =   8.76998005046828E-06
(PID.TID 0000.0001)      cg2d_iters(min,last) =      -1      83
(PID.TID 0000.0001)      cg2d_last_res =   9.58514111537460E-12
(PID.TID 0000.0001) // =======================================================
(PID.TID 0000.0001) // Begin MONITOR dynamic field statistics
(PID.TID 0000.0001) // =======================================================
(PID.TID 0000.0001) %MON time_tsnumber                =                  1259
(PID.TID 0000.0001) %MON time_secondsf                =   1.2590000000000E+05
(PID.TID 0000.0001) %MON dynstat_eta_max              =   5.7984935705567E+00
(PID.TID 0000.0001) %MON dynstat_eta_min              =  -1.4187593960987E+01
(PID.TID 0000.0001) %MON dynstat_eta_mean             =  -2.5032725990896E+00
(PID.TID 0000.0001) %MON dynstat_eta_sd               =   4.9497413775236E+00
(PID.TID 0000.0001) %MON dynstat_eta_del2             =   2.0715882014220E-01
(PID.TID 0000.0001) %MON dynstat_uvel_max             =   8.4546977704392E-03
(PID.TID 0000.0001) %MON dynstat_uvel_min             =  -3.8648496090882E-02
(PID.TID 0000.0001) %MON dynstat_uvel_mean            =  -1.1159863943066E-07
(PID.TID 0000.0001) %MON dynstat_uvel_sd              =   1.1178940469929E-03
(PID.TID 0000.0001) %MON dynstat_uvel_del2            =   1.6486901144383E-06
(PID.TID 0000.0001) %MON dynstat_vvel_max             =   2.8155285098709E-02
(PID.TID 0000.0001) %MON dynstat_vvel_min             =  -1.2705041168577E-02
(PID.TID 0000.0001) %MON dynstat_vvel_mean            =   1.5278869544648E-05
(PID.TID 0000.0001) %MON dynstat_vvel_sd              =   6.2462386781129E-04
(PID.TID 0000.0001) %MON dynstat_vvel_del2            =   1.2782860793355E-06
(PID.TID 0000.0001) %MON dynstat_wvel_max             =   1.4853693546905E-03
(PID.TID 0000.0001) %MON dynstat_wvel_min             =  -1.4278042547319E-03
(PID.TID 0000.0001) %MON dynstat_wvel_mean            =   7.4492006387729E-09
(PID.TID 0000.0001) %MON dynstat_wvel_sd              =   2.4128256252932E-05
(PID.TID 0000.0001) %MON dynstat_wvel_del2            =   9.9475500998174E-08
(PID.TID 0000.0001) %MON dynstat_theta_max            =   1.2000000000000E+00
(PID.TID 0000.0001) %MON dynstat_theta_min            =  -1.0000000000000E+00
(PID.TID 0000.0001) %MON dynstat_theta_mean           =   5.6852976250410E-01
(PID.TID 0000.0001) %MON dynstat_theta_sd             =   8.6827412379085E-01
(PID.TID 0000.0001) %MON dynstat_theta_del2           =   4.0940111706834E-06
(PID.TID 0000.0001) %MON dynstat_salt_max             =   3.4700000000000E+01
(PID.TID 0000.0001) %MON dynstat_salt_min             =   3.4000000000000E+01
(PID.TID 0000.0001) %MON dynstat_salt_mean            =   3.4499026038458E+01
(PID.TID 0000.0001) %MON dynstat_salt_sd              =   2.7624873645387E-01
(PID.TID 0000.0001) %MON dynstat_salt_del2            =   1.6192662471888E-06
(PID.TID 0000.0001) %MON advcfl_uvel_max              =   3.8648496090882E-03
(PID.TID 0000.0001) %MON advcfl_vvel_max              =   2.8155285098709E-03
(PID.TID 0000.0001) %MON advcfl_wvel_max              =   7.4268467734526E-03
(PID.TID 0000.0001) %MON advcfl_W_hf_max              =   7.4268467734526E-03
(PID.TID 0000.0001) %MON pe_b_mean                    =  -8.2953775310983E-01
(PID.TID 0000.0001) %MON ke_max                       =   5.7874312101376E-04
(PID.TID 0000.0001) %MON ke_mean                      =   8.0764067819653E-07
(PID.TID 0000.0001) %MON ke_vol                       =   4.2724705995202E+12
(PID.TID 0000.0001) // =======================================================
(PID.TID 0000.0001) // End MONITOR dynamic field statistics
(PID.TID 0000.0001) // =======================================================
(PID.TID 0000.0001) // =======================================================
(PID.TID 0000.0001) // Begin OBCS MONITOR field statistics
(PID.TID 0000.0001) // =======================================================
(PID.TID 0000.0001) %MON obc_N_vVel_max               =   1.4963488581312E-05
(PID.TID 0000.0001) %MON obc_N_vVel_min               =   1.4963488581312E-05
(PID.TID 0000.0001) %MON obc_N_vVel_mean              =   1.4963488581312E-05
(PID.TID 0000.0001) %MON obc_N_vVel_sd                =  -1.9671388942277E-23
(PID.TID 0000.0001) %MON obc_N_vVel_Int               =   9.8759024636661E+02
(PID.TID 0000.0001) // =======================================================
(PID.TID 0000.0001) // End OBCS MONITOR field statistics
(PID.TID 0000.0001) // =======================================================
 cg2d: Sum(rhs),rhsMax =   4.50665189388645E+00  2.99950109370399E+02
(PID.TID 0000.0001)      cg2d_init_res =   8.78090621794762E-06
(PID.TID 0000.0001)      cg2d_iters(min,last) =      -1      83
(PID.TID 0000.0001)      cg2d_last_res =   9.58372911073907E-12
(PID.TID 0000.0001) // =======================================================
(PID.TID 0000.0001) // Begin MONITOR dynamic field statistics
(PID.TID 0000.0001) // =======================================================
(PID.TID 0000.0001) %MON time_tsnumber                =                  1260
(PID.TID 0000.0001) %MON time_secondsf                =   1.2600000000000E+05
(PID.TID 0000.0001) %MON dynstat_eta_max              =   5.7984813471246E+00
(PID.TID 0000.0001) %MON dynstat_eta_min              =  -1.4187624135128E+01
(PID.TID 0000.0001) %MON dynstat_eta_mean             =  -2.5032791267881E+00
(PID.TID 0000.0001) %MON dynstat_eta_sd               =   4.9497439821464E+00
(PID.TID 0000.0001) %MON dynstat_eta_del2             =   2.0715886209567E-01
(PID.TID 0000.0001) %MON dynstat_uvel_max             =   8.4735410255128E-03
(PID.TID 0000.0001) %MON dynstat_uvel_min             =  -3.8741137301031E-02
(PID.TID 0000.0001) %MON dynstat_uvel_mean            =  -1.1146615640452E-07
(PID.TID 0000.0001) %MON dynstat_uvel_sd              =   1.1204612208145E-03
(PID.TID 0000.0001) %MON dynstat_uvel_del2            =   1.6526734718445E-06
(PID.TID 0000.0001) %MON dynstat_vvel_max             =   2.8205839970267E-02
(PID.TID 0000.0001) %MON dynstat_vvel_min             =  -1.2737400670632E-02
(PID.TID 0000.0001) %MON dynstat_vvel_mean            =   1.5297744472380E-05
(PID.TID 0000.0001) %MON dynstat_vvel_sd              =   6.2582302012345E-04
(PID.TID 0000.0001) %MON dynstat_vvel_del2            =   1.2808778159448E-06
(PID.TID 0000.0001) %MON dynstat_wvel_max             =   1.4884238451444E-03
(PID.TID 0000.0001) %MON dynstat_wvel_min             =  -1.4306979180189E-03
(PID.TID 0000.0001) %MON dynstat_wvel_mean            =   7.4505447929357E-09
(PID.TID 0000.0001) %MON dynstat_wvel_sd              =   2.4158432262065E-05
(PID.TID 0000.0001) %MON dynstat_wvel_del2            =   9.9571947350666E-08
(PID.TID 0000.0001) %MON dynstat_theta_max            =   1.2000000000000E+00
(PID.TID 0000.0001) %MON dynstat_theta_min            =  -1.0000000000000E+00
(PID.TID 0000.0001) %MON dynstat_theta_mean           =   5.6852855495518E-01
(PID.TID 0000.0001) %MON dynstat_theta_sd             =   8.6827347526576E-01
(PID.TID 0000.0001) %MON dynstat_theta_del2           =   4.1020899168744E-06
(PID.TID 0000.0001) %MON dynstat_salt_max             =   3.4700000000000E+01
(PID.TID 0000.0001) %MON dynstat_salt_min             =   3.4000000000000E+01
(PID.TID 0000.0001) %MON dynstat_salt_mean            =   3.4499025555138E+01
(PID.TID 0000.0001) %MON dynstat_salt_sd              =   2.7624848704468E-01
(PID.TID 0000.0001) %MON dynstat_salt_del2            =   1.6224927160754E-06
(PID.TID 0000.0001) %MON advcfl_uvel_max              =   3.8741137301031E-03
(PID.TID 0000.0001) %MON advcfl_vvel_max              =   2.8205839970267E-03
(PID.TID 0000.0001) %MON advcfl_wvel_max              =   7.4421192257218E-03
(PID.TID 0000.0001) %MON advcfl_W_hf_max              =   7.4421192257218E-03
(PID.TID 0000.0001) %MON pe_b_mean                    =  -8.2953914724289E-01
(PID.TID 0000.0001) %MON ke_max                       =   5.8181956444121E-04
(PID.TID 0000.0001) %MON ke_mean                      =   8.1120683976386E-07
(PID.TID 0000.0001) %MON ke_vol                       =   4.2724705607614E+12
(PID.TID 0000.0001) // =======================================================
(PID.TID 0000.0001) // End MONITOR dynamic field statistics
(PID.TID 0000.0001) // =======================================================
(PID.TID 0000.0001) // =======================================================
(PID.TID 0000.0001) // Begin OBCS MONITOR field statistics
(PID.TID 0000.0001) // =======================================================
(PID.TID 0000.0001) %MON obc_N_vVel_max               =   1.4981745339623E-05
(PID.TID 0000.0001) %MON obc_N_vVel_min               =   1.4981745339623E-05
(PID.TID 0000.0001) %MON obc_N_vVel_mean              =   1.4981745339623E-05
(PID.TID 0000.0001) %MON obc_N_vVel_sd                =   6.4310987107687E-13
(PID.TID 0000.0001) %MON obc_N_vVel_Int               =   9.8879519241512E+02
(PID.TID 0000.0001) // =======================================================
(PID.TID 0000.0001) // End OBCS MONITOR field statistics
(PID.TID 0000.0001) // =======================================================
 cg2d: Sum(rhs),rhsMax =   4.50666246060129E+00  2.99950188221584E+02
(PID.TID 0000.0001)      cg2d_init_res =   8.78975071468562E-06
(PID.TID 0000.0001)      cg2d_iters(min,last) =      -1      83
(PID.TID 0000.0001)      cg2d_last_res =   9.58150395083939E-12
(PID.TID 0000.0001) // =======================================================
(PID.TID 0000.0001) // Begin MONITOR dynamic field statistics
(PID.TID 0000.0001) // =======================================================
(PID.TID 0000.0001) %MON time_tsnumber                =                  1261
(PID.TID 0000.0001) %MON time_secondsf                =   1.2610000000000E+05
(PID.TID 0000.0001) %MON dynstat_eta_max              =   5.7984691318804E+00
(PID.TID 0000.0001) %MON dynstat_eta_min              =  -1.4187654321490E+01
(PID.TID 0000.0001) %MON dynstat_eta_mean             =  -2.5032856542750E+00
(PID.TID 0000.0001) %MON dynstat_eta_sd               =   4.9497465849694E+00
(PID.TID 0000.0001) %MON dynstat_eta_del2             =   2.0715890411624E-01
(PID.TID 0000.0001) %MON dynstat_uvel_max             =   8.4924170050940E-03
(PID.TID 0000.0001) %MON dynstat_uvel_min             =  -3.8833917281261E-02
(PID.TID 0000.0001) %MON dynstat_uvel_mean            =  -1.1133359246699E-07
(PID.TID 0000.0001) %MON dynstat_uvel_sd              =   1.1230337236681E-03
(PID.TID 0000.0001) %MON dynstat_uvel_del2            =   1.6566667688994E-06
(PID.TID 0000.0001) %MON dynstat_vvel_max             =   2.8256406654666E-02
(PID.TID 0000.0001) %MON dynstat_vvel_min             =  -1.2769833323356E-02
(PID.TID 0000.0001) %MON dynstat_vvel_mean            =   1.5313537495343E-05
(PID.TID 0000.0001) %MON dynstat_vvel_sd              =   6.2702410910585E-04
(PID.TID 0000.0001) %MON dynstat_vvel_del2            =   1.2834692546140E-06
(PID.TID 0000.0001) %MON dynstat_wvel_max             =   1.4914804253673E-03
(PID.TID 0000.0001) %MON dynstat_wvel_min             =  -1.4335936450811E-03
(PID.TID 0000.0001) %MON dynstat_wvel_mean            =   7.4460347068978E-09
(PID.TID 0000.0001) %MON dynstat_wvel_sd              =   2.4186031725666E-05
(PID.TID 0000.0001) %MON dynstat_wvel_del2            =   9.9654734670403E-08
(PID.TID 0000.0001) %MON dynstat_theta_max            =   1.2000000000000E+00
(PID.TID 0000.0001) %MON dynstat_theta_min            =  -1.0000000000000E+00
(PID.TID 0000.0001) %MON dynstat_theta_mean           =   5.6852734530201E-01
(PID.TID 0000.0001) %MON dynstat_theta_sd             =   8.6827282567272E-01
(PID.TID 0000.0001) %MON dynstat_theta_del2           =   4.1101888434607E-06
(PID.TID 0000.0001) %MON dynstat_salt_max             =   3.4700000000000E+01
(PID.TID 0000.0001) %MON dynstat_salt_min             =   3.4000000000000E+01
(PID.TID 0000.0001) %MON dynstat_salt_mean            =   3.4499025070975E+01
(PID.TID 0000.0001) %MON dynstat_salt_sd              =   2.7624823722954E-01
(PID.TID 0000.0001) %MON dynstat_salt_del2            =   1.6257265564269E-06
(PID.TID 0000.0001) %MON advcfl_uvel_max              =   3.8833917281261E-03
(PID.TID 0000.0001) %MON advcfl_vvel_max              =   2.8256406654666E-03
(PID.TID 0000.0001) %MON advcfl_wvel_max              =   7.4574021268366E-03
(PID.TID 0000.0001) %MON advcfl_W_hf_max              =   7.4574021268366E-03
(PID.TID 0000.0001) %MON pe_b_mean                    =  -8.2954053892980E-01
(PID.TID 0000.0001) %MON ke_max                       =   5.8490999599105E-04
(PID.TID 0000.0001) %MON ke_mean                      =   8.1478793277444E-07
(PID.TID 0000.0001) %MON ke_vol                       =   4.2724705219869E+12
(PID.TID 0000.0001) // =======================================================
(PID.TID 0000.0001) // End MONITOR dynamic field statistics
(PID.TID 0000.0001) // =======================================================
(PID.TID 0000.0001) // =======================================================
(PID.TID 0000.0001) // Begin OBCS MONITOR field statistics
(PID.TID 0000.0001) // =======================================================
(PID.TID 0000.0001) %MON obc_N_vVel_max               =   1.4997463115049E-05
(PID.TID 0000.0001) %MON obc_N_vVel_min               =   1.4997463115049E-05
(PID.TID 0000.0001) %MON obc_N_vVel_mean              =   1.4997463115049E-05
(PID.TID 0000.0001) %MON obc_N_vVel_sd                =   2.9162391316233E-12
(PID.TID 0000.0001) %MON obc_N_vVel_Int               =   9.8983256559321E+02
(PID.TID 0000.0001) // =======================================================
(PID.TID 0000.0001) // End OBCS MONITOR field statistics
(PID.TID 0000.0001) // =======================================================
 cg2d: Sum(rhs),rhsMax =   4.50667301967994E+00  2.99950267180981E+02
(PID.TID 0000.0001)      cg2d_init_res =   8.79658498046025E-06
(PID.TID 0000.0001)      cg2d_iters(min,last) =      -1      83
(PID.TID 0000.0001)      cg2d_last_res =   9.57847156956638E-12
(PID.TID 0000.0001) // =======================================================
(PID.TID 0000.0001) // Begin MONITOR dynamic field statistics
(PID.TID 0000.0001) // =======================================================
(PID.TID 0000.0001) %MON time_tsnumber                =                  1262
(PID.TID 0000.0001) %MON time_secondsf                =   1.2620000000000E+05
(PID.TID 0000.0001) %MON dynstat_eta_max              =   5.7984569308253E+00
(PID.TID 0000.0001) %MON dynstat_eta_min              =  -1.4187684515324E+01
(PID.TID 0000.0001) %MON dynstat_eta_mean             =  -2.5032921784265E+00
(PID.TID 0000.0001) %MON dynstat_eta_sd               =   4.9497491847791E+00
(PID.TID 0000.0001) %MON dynstat_eta_del2             =   2.0715894620287E-01
(PID.TID 0000.0001) %MON dynstat_uvel_max             =   8.5113257551086E-03
(PID.TID 0000.0001) %MON dynstat_uvel_min             =  -3.8926835888608E-02
(PID.TID 0000.0001) %MON dynstat_uvel_mean            =  -1.1119795000017E-07
(PID.TID 0000.0001) %MON dynstat_uvel_sd              =   1.1256115636719E-03
(PID.TID 0000.0001) %MON dynstat_uvel_del2            =   1.6606700231532E-06
(PID.TID 0000.0001) %MON dynstat_vvel_max             =   2.8306984846235E-02
(PID.TID 0000.0001) %MON dynstat_vvel_min             =  -1.2802339301961E-02
(PID.TID 0000.0001) %MON dynstat_vvel_mean            =   1.5326007815636E-05
(PID.TID 0000.0001) %MON dynstat_vvel_sd              =   6.2822732568679E-04
(PID.TID 0000.0001) %MON dynstat_vvel_del2            =   1.2860622513506E-06
(PID.TID 0000.0001) %MON dynstat_wvel_max             =   1.4945390810897E-03
(PID.TID 0000.0001) %MON dynstat_wvel_min             =  -1.4364914262256E-03
(PID.TID 0000.0001) %MON dynstat_wvel_mean            =   7.4358084467297E-09
(PID.TID 0000.0001) %MON dynstat_wvel_sd              =   2.4212209140615E-05
(PID.TID 0000.0001) %MON dynstat_wvel_del2            =   9.9730023953119E-08
(PID.TID 0000.0001) %MON dynstat_theta_max            =   1.2000000000000E+00
(PID.TID 0000.0001) %MON dynstat_theta_min            =  -1.0000000000000E+00
(PID.TID 0000.0001) %MON dynstat_theta_mean           =   5.6852613354069E-01
(PID.TID 0000.0001) %MON dynstat_theta_sd             =   8.6827217501337E-01
(PID.TID 0000.0001) %MON dynstat_theta_del2           =   4.1183069986742E-06
(PID.TID 0000.0001) %MON dynstat_salt_max             =   3.4700000000000E+01
(PID.TID 0000.0001) %MON dynstat_salt_min             =   3.4000000000000E+01
(PID.TID 0000.0001) %MON dynstat_salt_mean            =   3.4499024585967E+01
(PID.TID 0000.0001) %MON dynstat_salt_sd              =   2.7624798700878E-01
(PID.TID 0000.0001) %MON dynstat_salt_del2            =   1.6289672920385E-06
(PID.TID 0000.0001) %MON advcfl_uvel_max              =   3.8926835888608E-03
(PID.TID 0000.0001) %MON advcfl_vvel_max              =   2.8306984846235E-03
(PID.TID 0000.0001) %MON advcfl_wvel_max              =   7.4726954054483E-03
(PID.TID 0000.0001) %MON advcfl_W_hf_max              =   7.4726954054483E-03
(PID.TID 0000.0001) %MON pe_b_mean                    =  -8.2954192730124E-01
(PID.TID 0000.0001) %MON ke_max                       =   5.8801445986175E-04
(PID.TID 0000.0001) %MON ke_mean                      =   8.1838412960362E-07
(PID.TID 0000.0001) %MON ke_vol                       =   4.2724704832136E+12
(PID.TID 0000.0001) // =======================================================
(PID.TID 0000.0001) // End MONITOR dynamic field statistics
(PID.TID 0000.0001) // =======================================================
(PID.TID 0000.0001) // =======================================================
(PID.TID 0000.0001) // Begin OBCS MONITOR field statistics
(PID.TID 0000.0001) // =======================================================
(PID.TID 0000.0001) %MON obc_N_vVel_max               =   1.5010396954500E-05
(PID.TID 0000.0001) %MON obc_N_vVel_min               =   1.5010396954499E-05
(PID.TID 0000.0001) %MON obc_N_vVel_mean              =   1.5010396954500E-05
(PID.TID 0000.0001) %MON obc_N_vVel_sd                =  -1.4604907690389E-23
(PID.TID 0000.0001) %MON obc_N_vVel_Int               =   9.9068619899699E+02
(PID.TID 0000.0001) // =======================================================
(PID.TID 0000.0001) // End OBCS MONITOR field statistics
(PID.TID 0000.0001) // =======================================================
 cg2d: Sum(rhs),rhsMax =   4.50668356599175E+00  2.99950346189765E+02
(PID.TID 0000.0001)      cg2d_init_res =   8.80153371951768E-06
(PID.TID 0000.0001)      cg2d_iters(min,last) =      -1      83
(PID.TID 0000.0001)      cg2d_last_res =   9.57468294530436E-12
(PID.TID 0000.0001) // =======================================================
(PID.TID 0000.0001) // Begin MONITOR dynamic field statistics
(PID.TID 0000.0001) // =======================================================
(PID.TID 0000.0001) %MON time_tsnumber                =                  1263
(PID.TID 0000.0001) %MON time_secondsf                =   1.2630000000000E+05
(PID.TID 0000.0001) %MON dynstat_eta_max              =   5.7984447502421E+00
(PID.TID 0000.0001) %MON dynstat_eta_min              =  -1.4187714711726E+01
(PID.TID 0000.0001) %MON dynstat_eta_mean             =  -2.5032986959018E+00
(PID.TID 0000.0001) %MON dynstat_eta_sd               =   4.9497517803358E+00
(PID.TID 0000.0001) %MON dynstat_eta_del2             =   2.0715898835423E-01
(PID.TID 0000.0001) %MON dynstat_uvel_max             =   8.5302673161678E-03
(PID.TID 0000.0001) %MON dynstat_uvel_min             =  -3.9019892982853E-02
(PID.TID 0000.0001) %MON dynstat_uvel_mean            =  -1.1105609252184E-07
(PID.TID 0000.0001) %MON dynstat_uvel_sd              =   1.1281947488428E-03
(PID.TID 0000.0001) %MON dynstat_uvel_del2            =   1.6646832531707E-06
(PID.TID 0000.0001) %MON dynstat_vvel_max             =   2.8357574250652E-02
(PID.TID 0000.0001) %MON dynstat_vvel_min             =  -1.2834918769308E-02
(PID.TID 0000.0001) %MON dynstat_vvel_mean            =   1.5334973595756E-05
(PID.TID 0000.0001) %MON dynstat_vvel_sd              =   6.2943287951545E-04
(PID.TID 0000.0001) %MON dynstat_vvel_del2            =   1.2886587522763E-06
(PID.TID 0000.0001) %MON dynstat_wvel_max             =   1.4975997979295E-03
(PID.TID 0000.0001) %MON dynstat_wvel_min             =  -1.4393912523767E-03
(PID.TID 0000.0001) %MON dynstat_wvel_mean            =   7.4201023848500E-09
(PID.TID 0000.0001) %MON dynstat_wvel_sd              =   2.4238211121425E-05
(PID.TID 0000.0001) %MON dynstat_wvel_del2            =   9.9804436392851E-08
(PID.TID 0000.0001) %MON dynstat_theta_max            =   1.2000000000000E+00
(PID.TID 0000.0001) %MON dynstat_theta_min            =  -1.0000000000000E+00
(PID.TID 0000.0001) %MON dynstat_theta_mean           =   5.6852491966736E-01
(PID.TID 0000.0001) %MON dynstat_theta_sd             =   8.6827152329120E-01
(PID.TID 0000.0001) %MON dynstat_theta_del2           =   4.1264425209099E-06
(PID.TID 0000.0001) %MON dynstat_salt_max             =   3.4700000000000E+01
(PID.TID 0000.0001) %MON dynstat_salt_min             =   3.4000000000000E+01
(PID.TID 0000.0001) %MON dynstat_salt_mean            =   3.4499024100113E+01
(PID.TID 0000.0001) %MON dynstat_salt_sd              =   2.7624773638372E-01
(PID.TID 0000.0001) %MON dynstat_salt_del2            =   1.6322146014323E-06
(PID.TID 0000.0001) %MON advcfl_uvel_max              =   3.9019892982853E-03
(PID.TID 0000.0001) %MON advcfl_vvel_max              =   2.8357574250652E-03
(PID.TID 0000.0001) %MON advcfl_wvel_max              =   7.4879989896474E-03
(PID.TID 0000.0001) %MON advcfl_W_hf_max              =   7.4879989896474E-03
(PID.TID 0000.0001) %MON pe_b_mean                    =  -8.2954331144608E-01
(PID.TID 0000.0001) %MON ke_max                       =   5.9113300038503E-04
(PID.TID 0000.0001) %MON ke_mean                      =   8.2199561631229E-07
(PID.TID 0000.0001) %MON ke_vol                       =   4.2724704444601E+12
(PID.TID 0000.0001) // =======================================================
(PID.TID 0000.0001) // End MONITOR dynamic field statistics
(PID.TID 0000.0001) // =======================================================
(PID.TID 0000.0001) // =======================================================
(PID.TID 0000.0001) // Begin OBCS MONITOR field statistics
(PID.TID 0000.0001) // =======================================================
(PID.TID 0000.0001) %MON obc_N_vVel_max               =   1.5020351563068E-05
(PID.TID 0000.0001) %MON obc_N_vVel_min               =   1.5020351563067E-05
(PID.TID 0000.0001) %MON obc_N_vVel_mean              =   1.5020351563067E-05
(PID.TID 0000.0001) %MON obc_N_vVel_sd                =   3.0967927322936E-12
(PID.TID 0000.0001) %MON obc_N_vVel_Int               =   9.9134320316243E+02
(PID.TID 0000.0001) // =======================================================
(PID.TID 0000.0001) // End OBCS MONITOR field statistics
(PID.TID 0000.0001) // =======================================================
 cg2d: Sum(rhs),rhsMax =   4.50669409410376E+00  2.99950425190269E+02
(PID.TID 0000.0001)      cg2d_init_res =   8.80477137282770E-06
(PID.TID 0000.0001)      cg2d_iters(min,last) =      -1      83
(PID.TID 0000.0001)      cg2d_last_res =   9.57018615555549E-12
(PID.TID 0000.0001) // =======================================================
(PID.TID 0000.0001) // Begin MONITOR dynamic field statistics
(PID.TID 0000.0001) // =======================================================
(PID.TID 0000.0001) %MON time_tsnumber                =                  1264
(PID.TID 0000.0001) %MON time_secondsf                =   1.2640000000000E+05
(PID.TID 0000.0001) %MON dynstat_eta_max              =   5.7984325966965E+00
(PID.TID 0000.0001) %MON dynstat_eta_min              =  -1.4187744905722E+01
(PID.TID 0000.0001) %MON dynstat_eta_mean             =  -2.5033052032017E+00
(PID.TID 0000.0001) %MON dynstat_eta_sd               =   4.9497543704045E+00
(PID.TID 0000.0001) %MON dynstat_eta_del2             =   2.0715903056945E-01
(PID.TID 0000.0001) %MON dynstat_uvel_max             =   8.5492417236956E-03
(PID.TID 0000.0001) %MON dynstat_uvel_min             =  -3.9113088427925E-02
(PID.TID 0000.0001) %MON dynstat_uvel_mean            =  -1.1090537788290E-07
(PID.TID 0000.0001) %MON dynstat_uvel_sd              =   1.1307832871222E-03
(PID.TID 0000.0001) %MON dynstat_uvel_del2            =   1.6687064782543E-06
(PID.TID 0000.0001) %MON dynstat_vvel_max             =   2.8408174586067E-02
(PID.TID 0000.0001) %MON dynstat_vvel_min             =  -1.2867571876184E-02
(PID.TID 0000.0001) %MON dynstat_vvel_mean            =   1.5340314828370E-05
(PID.TID 0000.0001) %MON dynstat_vvel_sd              =   6.3064098454811E-04
(PID.TID 0000.0001) %MON dynstat_vvel_del2            =   1.2912606618877E-06
(PID.TID 0000.0001) %MON dynstat_wvel_max             =   1.5006625613729E-03
(PID.TID 0000.0001) %MON dynstat_wvel_min             =  -1.4422931151506E-03
(PID.TID 0000.0001) %MON dynstat_wvel_mean            =   7.3992457638130E-09
(PID.TID 0000.0001) %MON dynstat_wvel_sd              =   2.4265286917757E-05
(PID.TID 0000.0001) %MON dynstat_wvel_del2            =   9.9884579988909E-08
(PID.TID 0000.0001) %MON dynstat_theta_max            =   1.2000000000000E+00
(PID.TID 0000.0001) %MON dynstat_theta_min            =  -1.0000000000000E+00
(PID.TID 0000.0001) %MON dynstat_theta_mean           =   5.6852370367818E-01
(PID.TID 0000.0001) %MON dynstat_theta_sd             =   8.6827087050960E-01
(PID.TID 0000.0001) %MON dynstat_theta_del2           =   4.1345940005005E-06
(PID.TID 0000.0001) %MON dynstat_salt_max             =   3.4700000000000E+01
(PID.TID 0000.0001) %MON dynstat_salt_min             =   3.4000000000000E+01
(PID.TID 0000.0001) %MON dynstat_salt_mean            =   3.4499023613411E+01
(PID.TID 0000.0001) %MON dynstat_salt_sd              =   2.7624748535527E-01
(PID.TID 0000.0001) %MON dynstat_salt_del2            =   1.6354681673672E-06
(PID.TID 0000.0001) %MON advcfl_uvel_max              =   3.9113088427925E-03
(PID.TID 0000.0001) %MON advcfl_vvel_max              =   2.8408174586067E-03
(PID.TID 0000.0001) %MON advcfl_wvel_max              =   7.5033128068645E-03
(PID.TID 0000.0001) %MON advcfl_W_hf_max              =   7.5033128068645E-03
(PID.TID 0000.0001) %MON pe_b_mean                    =  -8.2954469042723E-01
(PID.TID 0000.0001) %MON ke_max                       =   5.9426566207966E-04
(PID.TID 0000.0001) %MON ke_mean                      =   8.2562258375728E-07
(PID.TID 0000.0001) %MON ke_vol                       =   4.2724704057463E+12
(PID.TID 0000.0001) // =======================================================
(PID.TID 0000.0001) // End MONITOR dynamic field statistics
(PID.TID 0000.0001) // =======================================================
(PID.TID 0000.0001) // =======================================================
(PID.TID 0000.0001) // Begin OBCS MONITOR field statistics
(PID.TID 0000.0001) // =======================================================
(PID.TID 0000.0001) %MON obc_N_vVel_max               =   1.5027184470565E-05
(PID.TID 0000.0001) %MON obc_N_vVel_min               =   1.5027184470564E-05
(PID.TID 0000.0001) %MON obc_N_vVel_mean              =   1.5027184470565E-05
(PID.TID 0000.0001) %MON obc_N_vVel_sd                =  -7.5480230895464E-24
(PID.TID 0000.0001) %MON obc_N_vVel_Int               =   9.9179417505729E+02
(PID.TID 0000.0001) // =======================================================
(PID.TID 0000.0001) // End OBCS MONITOR field statistics
(PID.TID 0000.0001) // =======================================================
 cg2d: Sum(rhs),rhsMax =   4.50670459837880E+00  2.99950504126805E+02
(PID.TID 0000.0001)      cg2d_init_res =   8.80649450085095E-06
(PID.TID 0000.0001)      cg2d_iters(min,last) =      -1      83
(PID.TID 0000.0001)      cg2d_last_res =   9.56508039110345E-12
(PID.TID 0000.0001) // =======================================================
(PID.TID 0000.0001) // Begin MONITOR dynamic field statistics
(PID.TID 0000.0001) // =======================================================
(PID.TID 0000.0001) %MON time_tsnumber                =                  1265
(PID.TID 0000.0001) %MON time_secondsf                =   1.2650000000000E+05
(PID.TID 0000.0001) %MON dynstat_eta_max              =   5.7984204767698E+00
(PID.TID 0000.0001) %MON dynstat_eta_min              =  -1.4187775092337E+01
(PID.TID 0000.0001) %MON dynstat_eta_mean             =  -2.5033116967302E+00
(PID.TID 0000.0001) %MON dynstat_eta_sd               =   4.9497569537698E+00
(PID.TID 0000.0001) %MON dynstat_eta_del2             =   2.0715907284769E-01
(PID.TID 0000.0001) %MON dynstat_uvel_max             =   8.5682490077339E-03
(PID.TID 0000.0001) %MON dynstat_uvel_min             =  -3.9206422092918E-02
(PID.TID 0000.0001) %MON dynstat_uvel_mean            =  -1.1074420005339E-07
(PID.TID 0000.0001) %MON dynstat_uvel_sd              =   1.1333771864149E-03
(PID.TID 0000.0001) %MON dynstat_uvel_del2            =   1.6727397181404E-06
(PID.TID 0000.0001) %MON dynstat_vvel_max             =   2.8458785584240E-02
(PID.TID 0000.0001) %MON dynstat_vvel_min             =  -1.2900298763160E-02
(PID.TID 0000.0001) %MON dynstat_vvel_mean            =   1.5341975116911E-05
(PID.TID 0000.0001) %MON dynstat_vvel_sd              =   6.3185184477505E-04
(PID.TID 0000.0001) %MON dynstat_vvel_del2            =   1.2938697180969E-06
(PID.TID 0000.0001) %MON dynstat_wvel_max             =   1.5037273567794E-03
(PID.TID 0000.0001) %MON dynstat_wvel_min             =  -1.4451970067374E-03
(PID.TID 0000.0001) %MON dynstat_wvel_mean            =   7.3736558751956E-09
(PID.TID 0000.0001) %MON dynstat_wvel_sd              =   2.4294600142766E-05
(PID.TID 0000.0001) %MON dynstat_wvel_del2            =   9.9976586030171E-08
(PID.TID 0000.0001) %MON dynstat_theta_max            =   1.2000000000000E+00
(PID.TID 0000.0001) %MON dynstat_theta_min            =  -1.0000000000000E+00
(PID.TID 0000.0001) %MON dynstat_theta_mean           =   5.6852248556939E-01
(PID.TID 0000.0001) %MON dynstat_theta_sd             =   8.6827021667084E-01
(PID.TID 0000.0001) %MON dynstat_theta_del2           =   4.1427601103453E-06
(PID.TID 0000.0001) %MON dynstat_salt_max             =   3.4700000000000E+01
(PID.TID 0000.0001) %MON dynstat_salt_min             =   3.4000000000000E+01
(PID.TID 0000.0001) %MON dynstat_salt_mean            =   3.4499023125859E+01
(PID.TID 0000.0001) %MON dynstat_salt_sd              =   2.7624723392418E-01
(PID.TID 0000.0001) %MON dynstat_salt_del2            =   1.6387276991395E-06
(PID.TID 0000.0001) %MON advcfl_uvel_max              =   3.9206422092918E-03
(PID.TID 0000.0001) %MON advcfl_vvel_max              =   2.8458785584240E-03
(PID.TID 0000.0001) %MON advcfl_wvel_max              =   7.5186367838968E-03
(PID.TID 0000.0001) %MON advcfl_W_hf_max              =   7.5186367838968E-03
(PID.TID 0000.0001) %MON pe_b_mean                    =  -8.2954606329798E-01
(PID.TID 0000.0001) %MON ke_max                       =   5.9741248968906E-04
(PID.TID 0000.0001) %MON ke_mean                      =   8.2926521867999E-07
(PID.TID 0000.0001) %MON ke_vol                       =   4.2724703670930E+12
(PID.TID 0000.0001) // =======================================================
(PID.TID 0000.0001) // End MONITOR dynamic field statistics
(PID.TID 0000.0001) // =======================================================
(PID.TID 0000.0001) // =======================================================
(PID.TID 0000.0001) // Begin OBCS MONITOR field statistics
(PID.TID 0000.0001) // =======================================================
(PID.TID 0000.0001) %MON obc_N_vVel_max               =   1.5030808228665E-05
(PID.TID 0000.0001) %MON obc_N_vVel_min               =   1.5030808228665E-05
(PID.TID 0000.0001) %MON obc_N_vVel_mean              =   1.5030808228665E-05
(PID.TID 0000.0001) %MON obc_N_vVel_sd                =   3.8553082408301E-12
(PID.TID 0000.0001) %MON obc_N_vVel_Int               =   9.9203334309188E+02
(PID.TID 0000.0001) // =======================================================
(PID.TID 0000.0001) // End OBCS MONITOR field statistics
(PID.TID 0000.0001) // =======================================================
 cg2d: Sum(rhs),rhsMax =   4.50671507307067E+00  2.99950582946780E+02
(PID.TID 0000.0001)      cg2d_init_res =   8.80691809603273E-06
(PID.TID 0000.0001)      cg2d_iters(min,last) =      -1      83
(PID.TID 0000.0001)      cg2d_last_res =   9.55949269573324E-12
(PID.TID 0000.0001) // =======================================================
(PID.TID 0000.0001) // Begin MONITOR dynamic field statistics
(PID.TID 0000.0001) // =======================================================
(PID.TID 0000.0001) %MON time_tsnumber                =                  1266
(PID.TID 0000.0001) %MON time_secondsf                =   1.2660000000000E+05
(PID.TID 0000.0001) %MON dynstat_eta_max              =   5.7984083970335E+00
(PID.TID 0000.0001) %MON dynstat_eta_min              =  -1.4187805266691E+01
(PID.TID 0000.0001) %MON dynstat_eta_mean             =  -2.5033181728566E+00
(PID.TID 0000.0001) %MON dynstat_eta_sd               =   4.9497595292570E+00
(PID.TID 0000.0001) %MON dynstat_eta_del2             =   2.0715911518810E-01
(PID.TID 0000.0001) %MON dynstat_uvel_max             =   8.5872891927501E-03
(PID.TID 0000.0001) %MON dynstat_uvel_min             =  -3.9299893852613E-02
(PID.TID 0000.0001) %MON dynstat_uvel_mean            =  -1.1057234854131E-07
(PID.TID 0000.0001) %MON dynstat_uvel_sd              =   1.1359764546218E-03
(PID.TID 0000.0001) %MON dynstat_uvel_del2            =   1.6767829932315E-06
(PID.TID 0000.0001) %MON dynstat_vvel_max             =   2.8509406990985E-02
(PID.TID 0000.0001) %MON dynstat_vvel_min             =  -1.2933099557838E-02
(PID.TID 0000.0001) %MON dynstat_vvel_mean            =   1.5339962330700E-05
(PID.TID 0000.0001) %MON dynstat_vvel_sd              =   6.3306564104407E-04
(PID.TID 0000.0001) %MON dynstat_vvel_del2            =   1.2964873840305E-06
(PID.TID 0000.0001) %MON dynstat_wvel_max             =   1.5067941693405E-03
(PID.TID 0000.0001) %MON dynstat_wvel_min             =  -1.4481029199584E-03
(PID.TID 0000.0001) %MON dynstat_wvel_mean            =   7.3438292499942E-09
(PID.TID 0000.0001) %MON dynstat_wvel_sd              =   2.4327147825892E-05
(PID.TID 0000.0001) %MON dynstat_wvel_del2            =   1.0008568700119E-07
(PID.TID 0000.0001) %MON dynstat_theta_max            =   1.2000000000000E+00
(PID.TID 0000.0001) %MON dynstat_theta_min            =  -1.0000000000000E+00
(PID.TID 0000.0001) %MON dynstat_theta_mean           =   5.6852126533728E-01
(PID.TID 0000.0001) %MON dynstat_theta_sd             =   8.6826956177364E-01
(PID.TID 0000.0001) %MON dynstat_theta_del2           =   4.1509396897982E-06
(PID.TID 0000.0001) %MON dynstat_salt_max             =   3.4700000000000E+01
(PID.TID 0000.0001) %MON dynstat_salt_min             =   3.4000000000000E+01
(PID.TID 0000.0001) %MON dynstat_salt_mean            =   3.4499022637456E+01
(PID.TID 0000.0001) %MON dynstat_salt_sd              =   2.7624698209017E-01
(PID.TID 0000.0001) %MON dynstat_salt_del2            =   1.6419929442375E-06
(PID.TID 0000.0001) %MON advcfl_uvel_max              =   3.9299893852613E-03
(PID.TID 0000.0001) %MON advcfl_vvel_max              =   2.8509406990985E-03
(PID.TID 0000.0001) %MON advcfl_wvel_max              =   7.5339708467023E-03
(PID.TID 0000.0001) %MON advcfl_W_hf_max              =   7.5339708467023E-03
(PID.TID 0000.0001) %MON pe_b_mean                    =  -8.2954742911817E-01
(PID.TID 0000.0001) %MON ke_max                       =   6.0057352820753E-04
(PID.TID 0000.0001) %MON ke_mean                      =   8.3292369536181E-07
(PID.TID 0000.0001) %MON ke_vol                       =   4.2724703285214E+12
(PID.TID 0000.0001) // =======================================================
(PID.TID 0000.0001) // End MONITOR dynamic field statistics
(PID.TID 0000.0001) // =======================================================
(PID.TID 0000.0001) // =======================================================
(PID.TID 0000.0001) // Begin OBCS MONITOR field statistics
(PID.TID 0000.0001) // =======================================================
(PID.TID 0000.0001) %MON obc_N_vVel_max               =   1.5031191674563E-05
(PID.TID 0000.0001) %MON obc_N_vVel_min               =   1.5031191674563E-05
(PID.TID 0000.0001) %MON obc_N_vVel_mean              =   1.5031191674563E-05
(PID.TID 0000.0001) %MON obc_N_vVel_sd                =  -7.0827339949853E-24
(PID.TID 0000.0001) %MON obc_N_vVel_Int               =   9.9205865052119E+02
(PID.TID 0000.0001) // =======================================================
(PID.TID 0000.0001) // End OBCS MONITOR field statistics
(PID.TID 0000.0001) // =======================================================
 cg2d: Sum(rhs),rhsMax =   4.50672551242583E+00  2.99950661601448E+02
(PID.TID 0000.0001)      cg2d_init_res =   8.80627730814969E-06
(PID.TID 0000.0001)      cg2d_iters(min,last) =      -1      83
(PID.TID 0000.0001)      cg2d_last_res =   9.55361807835731E-12
(PID.TID 0000.0001) // =======================================================
(PID.TID 0000.0001) // Begin MONITOR dynamic field statistics
(PID.TID 0000.0001) // =======================================================
(PID.TID 0000.0001) %MON time_tsnumber                =                  1267
(PID.TID 0000.0001) %MON time_secondsf                =   1.2670000000000E+05
(PID.TID 0000.0001) %MON dynstat_eta_max              =   5.7983963639070E+00
(PID.TID 0000.0001) %MON dynstat_eta_min              =  -1.4187835424064E+01
(PID.TID 0000.0001) %MON dynstat_eta_mean             =  -2.5033246279782E+00
(PID.TID 0000.0001) %MON dynstat_eta_sd               =   4.9497620957519E+00
(PID.TID 0000.0001) %MON dynstat_eta_del2             =   2.0715915758995E-01
(PID.TID 0000.0001) %MON dynstat_uvel_max             =   8.6063622977690E-03
(PID.TID 0000.0001) %MON dynstat_uvel_min             =  -3.9393503587548E-02
(PID.TID 0000.0001) %MON dynstat_uvel_mean            =  -1.1039117779873E-07
(PID.TID 0000.0001) %MON dynstat_uvel_sd              =   1.1385810996806E-03
(PID.TID 0000.0001) %MON dynstat_uvel_del2            =   1.6808363248724E-06
(PID.TID 0000.0001) %MON dynstat_vvel_max             =   2.8560038566102E-02
(PID.TID 0000.0001) %MON dynstat_vvel_min             =  -1.2965974376733E-02
(PID.TID 0000.0001) %MON dynstat_vvel_mean            =   1.5334348130742E-05
(PID.TID 0000.0001) %MON dynstat_vvel_sd              =   6.3428251984738E-04
(PID.TID 0000.0001) %MON dynstat_vvel_del2            =   1.2991147624699E-06
(PID.TID 0000.0001) %MON dynstat_wvel_max             =   1.5098629841006E-03
(PID.TID 0000.0001) %MON dynstat_wvel_min             =  -1.4510108480721E-03
(PID.TID 0000.0001) %MON dynstat_wvel_mean            =   7.3103332742357E-09
(PID.TID 0000.0001) %MON dynstat_wvel_sd              =   2.4363692470587E-05
(PID.TID 0000.0001) %MON dynstat_wvel_del2            =   1.0021586432296E-07
(PID.TID 0000.0001) %MON dynstat_theta_max            =   1.2000000000000E+00
(PID.TID 0000.0001) %MON dynstat_theta_min            =  -1.0000000000000E+00
(PID.TID 0000.0001) %MON dynstat_theta_mean           =   5.6852004297824E-01
(PID.TID 0000.0001) %MON dynstat_theta_sd             =   8.6826890581438E-01
(PID.TID 0000.0001) %MON dynstat_theta_del2           =   4.1591321239330E-06
(PID.TID 0000.0001) %MON dynstat_salt_max             =   3.4700000000000E+01
(PID.TID 0000.0001) %MON dynstat_salt_min             =   3.4000000000000E+01
(PID.TID 0000.0001) %MON dynstat_salt_mean            =   3.4499022148201E+01
(PID.TID 0000.0001) %MON dynstat_salt_sd              =   2.7624672985193E-01
(PID.TID 0000.0001) %MON dynstat_salt_del2            =   1.6452637691133E-06
(PID.TID 0000.0001) %MON advcfl_uvel_max              =   3.9393503587548E-03
(PID.TID 0000.0001) %MON advcfl_vvel_max              =   2.8560038566102E-03
(PID.TID 0000.0001) %MON advcfl_wvel_max              =   7.5493149205028E-03
(PID.TID 0000.0001) %MON advcfl_W_hf_max              =   7.5493149205028E-03
(PID.TID 0000.0001) %MON pe_b_mean                    =  -8.2954878697033E-01
(PID.TID 0000.0001) %MON ke_max                       =   6.0374882288462E-04
(PID.TID 0000.0001) %MON ke_mean                      =   8.3659816841555E-07
(PID.TID 0000.0001) %MON ke_vol                       =   4.2724702900532E+12
(PID.TID 0000.0001) // =======================================================
(PID.TID 0000.0001) // End MONITOR dynamic field statistics
(PID.TID 0000.0001) // =======================================================
(PID.TID 0000.0001) // =======================================================
(PID.TID 0000.0001) // Begin OBCS MONITOR field statistics
(PID.TID 0000.0001) // =======================================================
(PID.TID 0000.0001) %MON obc_N_vVel_max               =   1.5028360124711E-05
(PID.TID 0000.0001) %MON obc_N_vVel_min               =   1.5028360124711E-05
(PID.TID 0000.0001) %MON obc_N_vVel_mean              =   1.5028360124711E-05
(PID.TID 0000.0001) %MON obc_N_vVel_sd                =  -2.3522948669477E-24
(PID.TID 0000.0001) %MON obc_N_vVel_Int               =   9.9187176823093E+02
(PID.TID 0000.0001) // =======================================================
(PID.TID 0000.0001) // End OBCS MONITOR field statistics
(PID.TID 0000.0001) // =======================================================
 cg2d: Sum(rhs),rhsMax =   4.50673591077932E+00  2.99950740046942E+02
(PID.TID 0000.0001)      cg2d_init_res =   8.80481143263062E-06
(PID.TID 0000.0001)      cg2d_iters(min,last) =      -1      83
(PID.TID 0000.0001)      cg2d_last_res =   9.54768231033938E-12
(PID.TID 0000.0001) // =======================================================
(PID.TID 0000.0001) // Begin MONITOR dynamic field statistics
(PID.TID 0000.0001) // =======================================================
(PID.TID 0000.0001) %MON time_tsnumber                =                  1268
(PID.TID 0000.0001) %MON time_secondsf                =   1.2680000000000E+05
(PID.TID 0000.0001) %MON dynstat_eta_max              =   5.7983843835046E+00
(PID.TID 0000.0001) %MON dynstat_eta_min              =  -1.4187865559987E+01
(PID.TID 0000.0001) %MON dynstat_eta_mean             =  -2.5033310585822E+00
(PID.TID 0000.0001) %MON dynstat_eta_sd               =   4.9497646522200E+00
(PID.TID 0000.0001) %MON dynstat_eta_del2             =   2.0715920005261E-01
(PID.TID 0000.0001) %MON dynstat_uvel_max             =   8.6254683367315E-03
(PID.TID 0000.0001) %MON dynstat_uvel_min             =  -3.9487251183474E-02
(PID.TID 0000.0001) %MON dynstat_uvel_mean            =  -1.1020357463802E-07
(PID.TID 0000.0001) %MON dynstat_uvel_sd              =   1.1411911295838E-03
(PID.TID 0000.0001) %MON dynstat_uvel_del2            =   1.6848997353532E-06
(PID.TID 0000.0001) %MON dynstat_vvel_max             =   2.8610680083556E-02
(PID.TID 0000.0001) %MON dynstat_vvel_min             =  -1.2998923325723E-02
(PID.TID 0000.0001) %MON dynstat_vvel_mean            =   1.5325266373331E-05
(PID.TID 0000.0001) %MON dynstat_vvel_sd              =   6.3550258479098E-04
(PID.TID 0000.0001) %MON dynstat_vvel_del2            =   1.3017525380213E-06
(PID.TID 0000.0001) %MON dynstat_wvel_max             =   1.5129337859694E-03
(PID.TID 0000.0001) %MON dynstat_wvel_min             =  -1.4539207849793E-03
(PID.TID 0000.0001) %MON dynstat_wvel_mean            =   7.2737954746767E-09
(PID.TID 0000.0001) %MON dynstat_wvel_sd              =   2.4404711822812E-05
(PID.TID 0000.0001) %MON dynstat_wvel_del2            =   1.0036958957617E-07
(PID.TID 0000.0001) %MON dynstat_theta_max            =   1.2000000000000E+00
(PID.TID 0000.0001) %MON dynstat_theta_min            =  -1.0000000000000E+00
(PID.TID 0000.0001) %MON dynstat_theta_mean           =   5.6851881848872E-01
(PID.TID 0000.0001) %MON dynstat_theta_sd             =   8.6826824878384E-01
(PID.TID 0000.0001) %MON dynstat_theta_del2           =   4.1673370878332E-06
(PID.TID 0000.0001) %MON dynstat_salt_max             =   3.4700000000000E+01
(PID.TID 0000.0001) %MON dynstat_salt_min             =   3.4000000000000E+01
(PID.TID 0000.0001) %MON dynstat_salt_mean            =   3.4499021658093E+01
(PID.TID 0000.0001) %MON dynstat_salt_sd              =   2.7624647720661E-01
(PID.TID 0000.0001) %MON dynstat_salt_del2            =   1.6485401207129E-06
(PID.TID 0000.0001) %MON advcfl_uvel_max              =   3.9487251183474E-03
(PID.TID 0000.0001) %MON advcfl_vvel_max              =   2.8610680083556E-03
(PID.TID 0000.0001) %MON advcfl_wvel_max              =   7.5646689298468E-03
(PID.TID 0000.0001) %MON advcfl_W_hf_max              =   7.5646689298468E-03
(PID.TID 0000.0001) %MON pe_b_mean                    =  -8.2955013597527E-01
(PID.TID 0000.0001) %MON ke_max                       =   6.0693841921646E-04
(PID.TID 0000.0001) %MON ke_mean                      =   8.4028876715454E-07
(PID.TID 0000.0001) %MON ke_vol                       =   4.2724702517098E+12
(PID.TID 0000.0001) // =======================================================
(PID.TID 0000.0001) // End MONITOR dynamic field statistics
(PID.TID 0000.0001) // =======================================================
(PID.TID 0000.0001) // =======================================================
(PID.TID 0000.0001) // Begin OBCS MONITOR field statistics
(PID.TID 0000.0001) // =======================================================
(PID.TID 0000.0001) %MON obc_N_vVel_max               =   1.5022394660240E-05
(PID.TID 0000.0001) %MON obc_N_vVel_min               =   1.5022394660240E-05
(PID.TID 0000.0001) %MON obc_N_vVel_mean              =   1.5022394660240E-05
(PID.TID 0000.0001) %MON obc_N_vVel_sd                =  -6.9017882359893E-24
(PID.TID 0000.0001) %MON obc_N_vVel_Int               =   9.9147804757586E+02
(PID.TID 0000.0001) // =======================================================
(PID.TID 0000.0001) // End OBCS MONITOR field statistics
(PID.TID 0000.0001) // =======================================================
 cg2d: Sum(rhs),rhsMax =   4.50674626266271E+00  2.99950818244273E+02
(PID.TID 0000.0001)      cg2d_init_res =   8.80276381297987E-06
(PID.TID 0000.0001)      cg2d_iters(min,last) =      -1      83
(PID.TID 0000.0001)      cg2d_last_res =   9.54195165284947E-12
(PID.TID 0000.0001) // =======================================================
(PID.TID 0000.0001) // Begin MONITOR dynamic field statistics
(PID.TID 0000.0001) // =======================================================
(PID.TID 0000.0001) %MON time_tsnumber                =                  1269
(PID.TID 0000.0001) %MON time_secondsf                =   1.2690000000000E+05
(PID.TID 0000.0001) %MON dynstat_eta_max              =   5.7983724615351E+00
(PID.TID 0000.0001) %MON dynstat_eta_min              =  -1.4187895670303E+01
(PID.TID 0000.0001) %MON dynstat_eta_mean             =  -2.5033374613056E+00
(PID.TID 0000.0001) %MON dynstat_eta_sd               =   4.9497671977233E+00
(PID.TID 0000.0001) %MON dynstat_eta_del2             =   2.0715924257554E-01
(PID.TID 0000.0001) %MON dynstat_uvel_max             =   8.6446073185691E-03
(PID.TID 0000.0001) %MON dynstat_uvel_min             =  -3.9581136530852E-02
(PID.TID 0000.0001) %MON dynstat_uvel_mean            =  -1.1001376428151E-07
(PID.TID 0000.0001) %MON dynstat_uvel_sd              =   1.1438065523928E-03
(PID.TID 0000.0001) %MON dynstat_uvel_del2            =   1.6889732479823E-06
(PID.TID 0000.0001) %MON dynstat_vvel_max             =   2.8661331330493E-02
(PID.TID 0000.0001) %MON dynstat_vvel_min             =  -1.3031946500357E-02
(PID.TID 0000.0001) %MON dynstat_vvel_mean            =   1.5312910438572E-05
(PID.TID 0000.0001) %MON dynstat_vvel_sd              =   6.3672589126471E-04
(PID.TID 0000.0001) %MON dynstat_vvel_del2            =   1.3044009504364E-06
(PID.TID 0000.0001) %MON dynstat_wvel_max             =   1.5160065598845E-03
(PID.TID 0000.0001) %MON dynstat_wvel_min             =  -1.4568327250634E-03
(PID.TID 0000.0001) %MON dynstat_wvel_mean            =   7.2348933542527E-09
(PID.TID 0000.0001) %MON dynstat_wvel_sd              =   2.4450369762303E-05
(PID.TID 0000.0001) %MON dynstat_wvel_del2            =   1.0054767585666E-07
(PID.TID 0000.0001) %MON dynstat_theta_max            =   1.2000000000000E+00
(PID.TID 0000.0001) %MON dynstat_theta_min            =  -1.0000000000000E+00
(PID.TID 0000.0001) %MON dynstat_theta_mean           =   5.6851759186529E-01
(PID.TID 0000.0001) %MON dynstat_theta_sd             =   8.6826759067349E-01
(PID.TID 0000.0001) %MON dynstat_theta_del2           =   4.1755546717600E-06
(PID.TID 0000.0001) %MON dynstat_salt_max             =   3.4700000000000E+01
(PID.TID 0000.0001) %MON dynstat_salt_min             =   3.4000000000000E+01
(PID.TID 0000.0001) %MON dynstat_salt_mean            =   3.4499021167129E+01
(PID.TID 0000.0001) %MON dynstat_salt_sd              =   2.7624622415131E-01
(PID.TID 0000.0001) %MON dynstat_salt_del2            =   1.6518220420281E-06
(PID.TID 0000.0001) %MON advcfl_uvel_max              =   3.9581136530852E-03
(PID.TID 0000.0001) %MON advcfl_vvel_max              =   2.8661331330493E-03
(PID.TID 0000.0001) %MON advcfl_wvel_max              =   7.5800327994226E-03
(PID.TID 0000.0001) %MON advcfl_W_hf_max              =   7.5800327994226E-03
(PID.TID 0000.0001) %MON pe_b_mean                    =  -8.2955147530697E-01
(PID.TID 0000.0001) %MON ke_max                       =   6.1014236291989E-04
(PID.TID 0000.0001) %MON ke_mean                      =   8.4399559191098E-07
(PID.TID 0000.0001) %MON ke_vol                       =   4.2724702135120E+12
(PID.TID 0000.0001) // =======================================================
(PID.TID 0000.0001) // End MONITOR dynamic field statistics
(PID.TID 0000.0001) // =======================================================
(PID.TID 0000.0001) // =======================================================
(PID.TID 0000.0001) // Begin OBCS MONITOR field statistics
(PID.TID 0000.0001) // =======================================================
(PID.TID 0000.0001) %MON obc_N_vVel_max               =   1.5013430345882E-05
(PID.TID 0000.0001) %MON obc_N_vVel_min               =   1.5013430345882E-05
(PID.TID 0000.0001) %MON obc_N_vVel_mean              =   1.5013430345882E-05
(PID.TID 0000.0001) %MON obc_N_vVel_sd                =  -1.4889251025954E-23
(PID.TID 0000.0001) %MON obc_N_vVel_Int               =   9.9088640282822E+02
(PID.TID 0000.0001) // =======================================================
(PID.TID 0000.0001) // End OBCS MONITOR field statistics
(PID.TID 0000.0001) // =======================================================
 cg2d: Sum(rhs),rhsMax =   4.50675656289017E+00  2.99950896160444E+02
(PID.TID 0000.0001)      cg2d_init_res =   8.80037326990603E-06
(PID.TID 0000.0001)      cg2d_iters(min,last) =      -1      83
(PID.TID 0000.0001)      cg2d_last_res =   9.53671976026584E-12
(PID.TID 0000.0001) // =======================================================
(PID.TID 0000.0001) // Begin MONITOR dynamic field statistics
(PID.TID 0000.0001) // =======================================================
(PID.TID 0000.0001) %MON time_tsnumber                =                  1270
(PID.TID 0000.0001) %MON time_secondsf                =   1.2700000000000E+05
(PID.TID 0000.0001) %MON dynstat_eta_max              =   5.7983606031947E+00
(PID.TID 0000.0001) %MON dynstat_eta_min              =  -1.4187925751241E+01
(PID.TID 0000.0001) %MON dynstat_eta_mean             =  -2.5033438329923E+00
(PID.TID 0000.0001) %MON dynstat_eta_sd               =   4.9497697314358E+00
(PID.TID 0000.0001) %MON dynstat_eta_del2             =   2.0715928515830E-01
(PID.TID 0000.0001) %MON dynstat_uvel_max             =   8.6637792480211E-03
(PID.TID 0000.0001) %MON dynstat_uvel_min             =  -3.9675159523602E-02
(PID.TID 0000.0001) %MON dynstat_uvel_mean            =  -1.0982696644515E-07
(PID.TID 0000.0001) %MON dynstat_uvel_sd              =   1.1464273762428E-03
(PID.TID 0000.0001) %MON dynstat_uvel_del2            =   1.6930568870550E-06
(PID.TID 0000.0001) %MON dynstat_vvel_max             =   2.8711992106347E-02
(PID.TID 0000.0001) %MON dynstat_vvel_min             =  -1.3065043986392E-02
(PID.TID 0000.0001) %MON dynstat_vvel_mean            =   1.5297529534801E-05
(PID.TID 0000.0001) %MON dynstat_vvel_sd              =   6.3795244458612E-04
(PID.TID 0000.0001) %MON dynstat_vvel_del2            =   1.3070597993418E-06
(PID.TID 0000.0001) %MON dynstat_wvel_max             =   1.5190812906548E-03
(PID.TID 0000.0001) %MON dynstat_wvel_min             =  -1.4597466631767E-03
(PID.TID 0000.0001) %MON dynstat_wvel_mean            =   7.1943410026586E-09
(PID.TID 0000.0001) %MON dynstat_wvel_sd              =   2.4500510098619E-05
(PID.TID 0000.0001) %MON dynstat_wvel_del2            =   1.0074924751153E-07
(PID.TID 0000.0001) %MON dynstat_theta_max            =   1.2000000000000E+00
(PID.TID 0000.0001) %MON dynstat_theta_min            =  -1.0000000000000E+00
(PID.TID 0000.0001) %MON dynstat_theta_mean           =   5.6851636310464E-01
(PID.TID 0000.0001) %MON dynstat_theta_sd             =   8.6826693147491E-01
(PID.TID 0000.0001) %MON dynstat_theta_del2           =   4.1837865445818E-06
(PID.TID 0000.0001) %MON dynstat_salt_max             =   3.4700000000000E+01
(PID.TID 0000.0001) %MON dynstat_salt_min             =   3.4000000000000E+01
(PID.TID 0000.0001) %MON dynstat_salt_mean            =   3.4499020675308E+01
(PID.TID 0000.0001) %MON dynstat_salt_sd              =   2.7624597068323E-01
(PID.TID 0000.0001) %MON dynstat_salt_del2            =   1.6551096782431E-06
(PID.TID 0000.0001) %MON advcfl_uvel_max              =   3.9675159523602E-03
(PID.TID 0000.0001) %MON advcfl_vvel_max              =   2.8711992106347E-03
(PID.TID 0000.0001) %MON advcfl_wvel_max              =   7.5954064532739E-03
(PID.TID 0000.0001) %MON advcfl_W_hf_max              =   7.5954064532739E-03
(PID.TID 0000.0001) %MON pe_b_mean                    =  -8.2955280420647E-01
(PID.TID 0000.0001) %MON ke_max                       =   6.1336069989652E-04
(PID.TID 0000.0001) %MON ke_mean                      =   8.4771871250119E-07
(PID.TID 0000.0001) %MON ke_vol                       =   4.2724701754798E+12
(PID.TID 0000.0001) // =======================================================
(PID.TID 0000.0001) // End MONITOR dynamic field statistics
(PID.TID 0000.0001) // =======================================================
(PID.TID 0000.0001) // =======================================================
(PID.TID 0000.0001) // Begin OBCS MONITOR field statistics
(PID.TID 0000.0001) // =======================================================
(PID.TID 0000.0001) %MON obc_N_vVel_max               =   1.5001653647169E-05
(PID.TID 0000.0001) %MON obc_N_vVel_min               =   1.5001653647169E-05
(PID.TID 0000.0001) %MON obc_N_vVel_mean              =   1.5001653647169E-05
(PID.TID 0000.0001) %MON obc_N_vVel_sd                =  -3.1794754795007E-24
(PID.TID 0000.0001) %MON obc_N_vVel_Int               =   9.9010914071319E+02
(PID.TID 0000.0001) // =======================================================
(PID.TID 0000.0001) // End OBCS MONITOR field statistics
(PID.TID 0000.0001) // =======================================================
 cg2d: Sum(rhs),rhsMax =   4.50676680664494E+00  2.99950973768711E+02
(PID.TID 0000.0001)      cg2d_init_res =   8.79786577672695E-06
(PID.TID 0000.0001)      cg2d_iters(min,last) =      -1      83
(PID.TID 0000.0001)      cg2d_last_res =   9.53231242973069E-12
(PID.TID 0000.0001) // =======================================================
(PID.TID 0000.0001) // Begin MONITOR dynamic field statistics
(PID.TID 0000.0001) // =======================================================
(PID.TID 0000.0001) %MON time_tsnumber                =                  1271
(PID.TID 0000.0001) %MON time_secondsf                =   1.2710000000000E+05
(PID.TID 0000.0001) %MON dynstat_eta_max              =   5.7983488130730E+00
(PID.TID 0000.0001) %MON dynstat_eta_min              =  -1.4187955799460E+01
(PID.TID 0000.0001) %MON dynstat_eta_mean             =  -2.5033501707438E+00
(PID.TID 0000.0001) %MON dynstat_eta_sd               =   4.9497722526503E+00
(PID.TID 0000.0001) %MON dynstat_eta_del2             =   2.0715932780033E-01
(PID.TID 0000.0001) %MON dynstat_uvel_max             =   8.6829841259970E-03
(PID.TID 0000.0001) %MON dynstat_uvel_min             =  -3.9769320058166E-02
(PID.TID 0000.0001) %MON dynstat_uvel_mean            =  -1.0964896318849E-07
(PID.TID 0000.0001) %MON dynstat_uvel_sd              =   1.1490536093399E-03
(PID.TID 0000.0001) %MON dynstat_uvel_del2            =   1.6971506778190E-06
(PID.TID 0000.0001) %MON dynstat_vvel_max             =   2.8762662221510E-02
(PID.TID 0000.0001) %MON dynstat_vvel_min             =  -1.3098215860563E-02
(PID.TID 0000.0001) %MON dynstat_vvel_mean            =   1.5279424040429E-05
(PID.TID 0000.0001) %MON dynstat_vvel_sd              =   6.3918220168191E-04
(PID.TID 0000.0001) %MON dynstat_vvel_del2            =   1.3097284790023E-06
(PID.TID 0000.0001) %MON dynstat_wvel_max             =   1.5221579629380E-03
(PID.TID 0000.0001) %MON dynstat_wvel_min             =  -1.4626625947032E-03
(PID.TID 0000.0001) %MON dynstat_wvel_mean            =   7.1528779775976E-09
(PID.TID 0000.0001) %MON dynstat_wvel_sd              =   2.4554673280376E-05
(PID.TID 0000.0001) %MON dynstat_wvel_del2            =   1.0097182777670E-07
(PID.TID 0000.0001) %MON dynstat_theta_max            =   1.2000000000000E+00
(PID.TID 0000.0001) %MON dynstat_theta_min            =  -1.0000000000000E+00
(PID.TID 0000.0001) %MON dynstat_theta_mean           =   5.6851513220325E-01
(PID.TID 0000.0001) %MON dynstat_theta_sd             =   8.6826627118209E-01
(PID.TID 0000.0001) %MON dynstat_theta_del2           =   4.1920343296556E-06
(PID.TID 0000.0001) %MON dynstat_salt_max             =   3.4700000000000E+01
(PID.TID 0000.0001) %MON dynstat_salt_min             =   3.4000000000000E+01
(PID.TID 0000.0001) %MON dynstat_salt_mean            =   3.4499020182630E+01
(PID.TID 0000.0001) %MON dynstat_salt_sd              =   2.7624571680098E-01
(PID.TID 0000.0001) %MON dynstat_salt_del2            =   1.6584042506051E-06
(PID.TID 0000.0001) %MON advcfl_uvel_max              =   3.9769320058166E-03
(PID.TID 0000.0001) %MON advcfl_vvel_max              =   2.8762662221510E-03
(PID.TID 0000.0001) %MON advcfl_wvel_max              =   7.6107898146900E-03
(PID.TID 0000.0001) %MON advcfl_W_hf_max              =   7.6107898146900E-03
(PID.TID 0000.0001) %MON pe_b_mean                    =  -8.2955412199284E-01
(PID.TID 0000.0001) %MON ke_max                       =   6.1659347618993E-04
(PID.TID 0000.0001) %MON ke_mean                      =   8.5145816891044E-07
(PID.TID 0000.0001) %MON ke_vol                       =   4.2724701376320E+12
(PID.TID 0000.0001) // =======================================================
(PID.TID 0000.0001) // End MONITOR dynamic field statistics
(PID.TID 0000.0001) // =======================================================
(PID.TID 0000.0001) // =======================================================
(PID.TID 0000.0001) // Begin OBCS MONITOR field statistics
(PID.TID 0000.0001) // =======================================================
(PID.TID 0000.0001) %MON obc_N_vVel_max               =   1.4987298769533E-05
(PID.TID 0000.0001) %MON obc_N_vVel_min               =   1.4987298769532E-05
(PID.TID 0000.0001) %MON obc_N_vVel_mean              =   1.4987298769532E-05
(PID.TID 0000.0001) %MON obc_N_vVel_sd                =   1.2453769102312E-12
(PID.TID 0000.0001) %MON obc_N_vVel_Int               =   9.8916171878913E+02
(PID.TID 0000.0001) // =======================================================
(PID.TID 0000.0001) // End OBCS MONITOR field statistics
(PID.TID 0000.0001) // =======================================================
 cg2d: Sum(rhs),rhsMax =   4.50677698956762E+00  2.99951051048956E+02
(PID.TID 0000.0001)      cg2d_init_res =   8.79548555793163E-06
(PID.TID 0000.0001)      cg2d_iters(min,last) =      -1      83
(PID.TID 0000.0001)      cg2d_last_res =   9.52902763579112E-12
(PID.TID 0000.0001) // =======================================================
(PID.TID 0000.0001) // Begin MONITOR dynamic field statistics
(PID.TID 0000.0001) // =======================================================
(PID.TID 0000.0001) %MON time_tsnumber                =                  1272
(PID.TID 0000.0001) %MON time_secondsf                =   1.2720000000000E+05
(PID.TID 0000.0001) %MON dynstat_eta_max              =   5.7983370950884E+00
(PID.TID 0000.0001) %MON dynstat_eta_min              =  -1.4187985812126E+01
(PID.TID 0000.0001) %MON dynstat_eta_mean             =  -2.5033564719705E+00
(PID.TID 0000.0001) %MON dynstat_eta_sd               =   4.9497747608083E+00
(PID.TID 0000.0001) %MON dynstat_eta_del2             =   2.0715937050185E-01
(PID.TID 0000.0001) %MON dynstat_uvel_max             =   8.7022219484894E-03
(PID.TID 0000.0001) %MON dynstat_uvel_min             =  -3.9863618031712E-02
(PID.TID 0000.0001) %MON dynstat_uvel_mean            =  -1.0948562754053E-07
(PID.TID 0000.0001) %MON dynstat_uvel_sd              =   1.1516852599806E-03
(PID.TID 0000.0001) %MON dynstat_uvel_del2            =   1.7012546464185E-06
(PID.TID 0000.0001) %MON dynstat_vvel_max             =   2.8813341495908E-02
(PID.TID 0000.0001) %MON dynstat_vvel_min             =  -1.3131462190671E-02
(PID.TID 0000.0001) %MON dynstat_vvel_mean            =   1.5258939934009E-05
(PID.TID 0000.0001) %MON dynstat_vvel_sd              =   6.4041507578576E-04
(PID.TID 0000.0001) %MON dynstat_vvel_del2            =   1.3124060401272E-06
(PID.TID 0000.0001) %MON dynstat_wvel_max             =   1.5252365612952E-03
(PID.TID 0000.0001) %MON dynstat_wvel_min             =  -1.4655805154206E-03
(PID.TID 0000.0001) %MON dynstat_wvel_mean            =   7.1112549429987E-09
(PID.TID 0000.0001) %MON dynstat_wvel_sd              =   2.4612134225373E-05
(PID.TID 0000.0001) %MON dynstat_wvel_del2            =   1.0121153341665E-07
(PID.TID 0000.0001) %MON dynstat_theta_max            =   1.2000000000000E+00
(PID.TID 0000.0001) %MON dynstat_theta_min            =  -1.0000000000000E+00
(PID.TID 0000.0001) %MON dynstat_theta_mean           =   5.6851389915787E-01
(PID.TID 0000.0001) %MON dynstat_theta_sd             =   8.6826560978873E-01
(PID.TID 0000.0001) %MON dynstat_theta_del2           =   4.2002973422872E-06
(PID.TID 0000.0001) %MON dynstat_salt_max             =   3.4700000000000E+01
(PID.TID 0000.0001) %MON dynstat_salt_min             =   3.4000000000000E+01
(PID.TID 0000.0001) %MON dynstat_salt_mean            =   3.4499019689092E+01
(PID.TID 0000.0001) %MON dynstat_salt_sd              =   2.7624546250217E-01
(PID.TID 0000.0001) %MON dynstat_salt_del2            =   1.6617053270741E-06
(PID.TID 0000.0001) %MON advcfl_uvel_max              =   3.9863618031712E-03
(PID.TID 0000.0001) %MON advcfl_vvel_max              =   2.8813341495908E-03
(PID.TID 0000.0001) %MON advcfl_wvel_max              =   7.6261828064762E-03
(PID.TID 0000.0001) %MON advcfl_W_hf_max              =   7.6261828064762E-03
(PID.TID 0000.0001) %MON pe_b_mean                    =  -8.2955542807681E-01
(PID.TID 0000.0001) %MON ke_max                       =   6.1984073792775E-04
(PID.TID 0000.0001) %MON ke_mean                      =   8.5521397392921E-07
(PID.TID 0000.0001) %MON ke_vol                       =   4.2724700999858E+12
(PID.TID 0000.0001) // =======================================================
(PID.TID 0000.0001) // End MONITOR dynamic field statistics
(PID.TID 0000.0001) // =======================================================
(PID.TID 0000.0001) // =======================================================
(PID.TID 0000.0001) // Begin OBCS MONITOR field statistics
(PID.TID 0000.0001) // =======================================================
(PID.TID 0000.0001) %MON obc_N_vVel_max               =   1.4970643346963E-05
(PID.TID 0000.0001) %MON obc_N_vVel_min               =   1.4970643346962E-05
(PID.TID 0000.0001) %MON obc_N_vVel_mean              =   1.4970643346962E-05
(PID.TID 0000.0001) %MON obc_N_vVel_sd                =   4.7286071874363E-12
(PID.TID 0000.0001) %MON obc_N_vVel_Int               =   9.8806246089952E+02
(PID.TID 0000.0001) // =======================================================
(PID.TID 0000.0001) // End OBCS MONITOR field statistics
(PID.TID 0000.0001) // =======================================================
 cg2d: Sum(rhs),rhsMax =   4.50678710782907E+00  2.99951127987775E+02
(PID.TID 0000.0001)      cg2d_init_res =   8.79340201949275E-06
(PID.TID 0000.0001)      cg2d_iters(min,last) =      -1      83
(PID.TID 0000.0001)      cg2d_last_res =   9.52711029970852E-12
(PID.TID 0000.0001) // =======================================================
(PID.TID 0000.0001) // Begin MONITOR dynamic field statistics
(PID.TID 0000.0001) // =======================================================
(PID.TID 0000.0001) %MON time_tsnumber                =                  1273
(PID.TID 0000.0001) %MON time_secondsf                =   1.2730000000000E+05
(PID.TID 0000.0001) %MON dynstat_eta_max              =   5.7983254524165E+00
(PID.TID 0000.0001) %MON dynstat_eta_min              =  -1.4188015786914E+01
(PID.TID 0000.0001) %MON dynstat_eta_mean             =  -2.5033627344335E+00
(PID.TID 0000.0001) %MON dynstat_eta_sd               =   4.9497772554856E+00
(PID.TID 0000.0001) %MON dynstat_eta_del2             =   2.0715941326254E-01
(PID.TID 0000.0001) %MON dynstat_uvel_max             =   8.7214927105173E-03
(PID.TID 0000.0001) %MON dynstat_uvel_min             =  -3.9958053340312E-02
(PID.TID 0000.0001) %MON dynstat_uvel_mean            =  -1.0934245292626E-07
(PID.TID 0000.0001) %MON dynstat_uvel_sd              =   1.1543223364979E-03
(PID.TID 0000.0001) %MON dynstat_uvel_del2            =   1.7053688191282E-06
(PID.TID 0000.0001) %MON dynstat_vvel_max             =   2.8864029757180E-02
(PID.TID 0000.0001) %MON dynstat_vvel_min             =  -1.3164783037503E-02
(PID.TID 0000.0001) %MON dynstat_vvel_mean            =   1.5236462556164E-05
(PID.TID 0000.0001) %MON dynstat_vvel_sd              =   6.4165094456640E-04
(PID.TID 0000.0001) %MON dynstat_vvel_del2            =   1.3150912725840E-06
(PID.TID 0000.0001) %MON dynstat_wvel_max             =   1.5283170701853E-03
(PID.TID 0000.0001) %MON dynstat_wvel_min             =  -1.4685004211028E-03
(PID.TID 0000.0001) %MON dynstat_wvel_mean            =   7.0702224289073E-09
(PID.TID 0000.0001) %MON dynstat_wvel_sd              =   2.4671958181713E-05
(PID.TID 0000.0001) %MON dynstat_wvel_del2            =   1.0146336293101E-07
(PID.TID 0000.0001) %MON dynstat_theta_max            =   1.2000000000000E+00
(PID.TID 0000.0001) %MON dynstat_theta_min            =  -1.0000000000000E+00
(PID.TID 0000.0001) %MON dynstat_theta_mean           =   5.6851266396538E-01
(PID.TID 0000.0001) %MON dynstat_theta_sd             =   8.6826494728910E-01
(PID.TID 0000.0001) %MON dynstat_theta_del2           =   4.2085769924655E-06
(PID.TID 0000.0001) %MON dynstat_salt_max             =   3.4700000000000E+01
(PID.TID 0000.0001) %MON dynstat_salt_min             =   3.4000000000000E+01
(PID.TID 0000.0001) %MON dynstat_salt_mean            =   3.4499019194693E+01
(PID.TID 0000.0001) %MON dynstat_salt_sd              =   2.7624520778507E-01
(PID.TID 0000.0001) %MON dynstat_salt_del2            =   1.6650130064893E-06
(PID.TID 0000.0001) %MON advcfl_uvel_max              =   3.9958053340312E-03
(PID.TID 0000.0001) %MON advcfl_vvel_max              =   2.8864029757180E-03
(PID.TID 0000.0001) %MON advcfl_wvel_max              =   7.6415853509267E-03
(PID.TID 0000.0001) %MON advcfl_W_hf_max              =   7.6415853509267E-03
(PID.TID 0000.0001) %MON pe_b_mean                    =  -8.2955672196950E-01
(PID.TID 0000.0001) %MON ke_max                       =   6.2310253126763E-04
(PID.TID 0000.0001) %MON ke_mean                      =   8.5898611793036E-07
(PID.TID 0000.0001) %MON ke_vol                       =   4.2724700625565E+12
(PID.TID 0000.0001) // =======================================================
(PID.TID 0000.0001) // End MONITOR dynamic field statistics
(PID.TID 0000.0001) // =======================================================
(PID.TID 0000.0001) // =======================================================
(PID.TID 0000.0001) // Begin OBCS MONITOR field statistics
(PID.TID 0000.0001) // =======================================================
(PID.TID 0000.0001) %MON obc_N_vVel_max               =   1.4952003337370E-05
(PID.TID 0000.0001) %MON obc_N_vVel_min               =   1.4952003337370E-05
(PID.TID 0000.0001) %MON obc_N_vVel_mean              =   1.4952003337370E-05
(PID.TID 0000.0001) %MON obc_N_vVel_sd                =  -1.1735624940596E-23
(PID.TID 0000.0001) %MON obc_N_vVel_Int               =   9.8683222026644E+02
(PID.TID 0000.0001) // =======================================================
(PID.TID 0000.0001) // End OBCS MONITOR field statistics
(PID.TID 0000.0001) // =======================================================
 cg2d: Sum(rhs),rhsMax =   4.50679715819797E+00  2.99951204578545E+02
(PID.TID 0000.0001)      cg2d_init_res =   8.79181227804653E-06
(PID.TID 0000.0001)      cg2d_iters(min,last) =      -1      83
(PID.TID 0000.0001)      cg2d_last_res =   9.52684005714538E-12
(PID.TID 0000.0001) // =======================================================
(PID.TID 0000.0001) // Begin MONITOR dynamic field statistics
(PID.TID 0000.0001) // =======================================================
(PID.TID 0000.0001) %MON time_tsnumber                =                  1274
(PID.TID 0000.0001) %MON time_secondsf                =   1.2740000000000E+05
(PID.TID 0000.0001) %MON dynstat_eta_max              =   5.7983138873912E+00
(PID.TID 0000.0001) %MON dynstat_eta_min              =  -1.4188045722063E+01
(PID.TID 0000.0001) %MON dynstat_eta_mean             =  -2.5033689562827E+00
(PID.TID 0000.0001) %MON dynstat_eta_sd               =   4.9497797364135E+00
(PID.TID 0000.0001) %MON dynstat_eta_del2             =   2.0715945608235E-01
(PID.TID 0000.0001) %MON dynstat_uvel_max             =   8.7407964051351E-03
(PID.TID 0000.0001) %MON dynstat_uvel_min             =  -4.0052625878377E-02
(PID.TID 0000.0001) %MON dynstat_uvel_mean            =  -1.0922415075830E-07
(PID.TID 0000.0001) %MON dynstat_uvel_sd              =   1.1569648472669E-03
(PID.TID 0000.0001) %MON dynstat_uvel_del2            =   1.7094932226691E-06
(PID.TID 0000.0001) %MON dynstat_vvel_max             =   2.8914726839029E-02
(PID.TID 0000.0001) %MON dynstat_vvel_min             =  -1.3198178458040E-02
(PID.TID 0000.0001) %MON dynstat_vvel_mean            =   1.5212409634629E-05
(PID.TID 0000.0001) %MON dynstat_vvel_sd              =   6.4288966015264E-04
(PID.TID 0000.0001) %MON dynstat_vvel_del2            =   1.3177828042955E-06
(PID.TID 0000.0001) %MON dynstat_wvel_max             =   1.5313994739918E-03
(PID.TID 0000.0001) %MON dynstat_wvel_min             =  -1.4714223014973E-03
(PID.TID 0000.0001) %MON dynstat_wvel_mean            =   7.0305160418918E-09
(PID.TID 0000.0001) %MON dynstat_wvel_sd              =   2.4733069933374E-05
(PID.TID 0000.0001) %MON dynstat_wvel_del2            =   1.0172155224048E-07
(PID.TID 0000.0001) %MON dynstat_theta_max            =   1.2000000000000E+00
(PID.TID 0000.0001) %MON dynstat_theta_min            =  -1.0000000000000E+00
(PID.TID 0000.0001) %MON dynstat_theta_mean           =   5.6851142662304E-01
(PID.TID 0000.0001) %MON dynstat_theta_sd             =   8.6826428367819E-01
(PID.TID 0000.0001) %MON dynstat_theta_del2           =   4.2168747586462E-06
(PID.TID 0000.0001) %MON dynstat_salt_max             =   3.4700000000000E+01
(PID.TID 0000.0001) %MON dynstat_salt_min             =   3.4000000000000E+01
(PID.TID 0000.0001) %MON dynstat_salt_mean            =   3.4499018699433E+01
(PID.TID 0000.0001) %MON dynstat_salt_sd              =   2.7624495264783E-01
(PID.TID 0000.0001) %MON dynstat_salt_del2            =   1.6683276647381E-06
(PID.TID 0000.0001) %MON advcfl_uvel_max              =   4.0052625878377E-03
(PID.TID 0000.0001) %MON advcfl_vvel_max              =   2.8914726839029E-03
(PID.TID 0000.0001) %MON advcfl_wvel_max              =   7.6569973699590E-03
(PID.TID 0000.0001) %MON advcfl_W_hf_max              =   7.6569973699590E-03
(PID.TID 0000.0001) %MON pe_b_mean                    =  -8.2955800329066E-01
(PID.TID 0000.0001) %MON ke_max                       =   6.2637890234693E-04
(PID.TID 0000.0001) %MON ke_mean                      =   8.6277457498005E-07
(PID.TID 0000.0001) %MON ke_vol                       =   4.2724700253575E+12
(PID.TID 0000.0001) // =======================================================
(PID.TID 0000.0001) // End MONITOR dynamic field statistics
(PID.TID 0000.0001) // =======================================================
(PID.TID 0000.0001) // =======================================================
(PID.TID 0000.0001) // Begin OBCS MONITOR field statistics
(PID.TID 0000.0001) // =======================================================
(PID.TID 0000.0001) %MON obc_N_vVel_max               =   1.4931727264548E-05
(PID.TID 0000.0001) %MON obc_N_vVel_min               =   1.4931727264548E-05
(PID.TID 0000.0001) %MON obc_N_vVel_mean              =   1.4931727264548E-05
(PID.TID 0000.0001) %MON obc_N_vVel_sd                =   3.4219549305118E-12
(PID.TID 0000.0001) %MON obc_N_vVel_Int               =   9.8549399946014E+02
(PID.TID 0000.0001) // =======================================================
(PID.TID 0000.0001) // End OBCS MONITOR field statistics
(PID.TID 0000.0001) // =======================================================
 cg2d: Sum(rhs),rhsMax =   4.50680713808759E+00  2.99951280821383E+02
(PID.TID 0000.0001)      cg2d_init_res =   8.79088936859691E-06
(PID.TID 0000.0001)      cg2d_iters(min,last) =      -1      83
(PID.TID 0000.0001)      cg2d_last_res =   9.52844391378662E-12
(PID.TID 0000.0001) // =======================================================
(PID.TID 0000.0001) // Begin MONITOR dynamic field statistics
(PID.TID 0000.0001) // =======================================================
(PID.TID 0000.0001) %MON time_tsnumber                =                  1275
(PID.TID 0000.0001) %MON time_secondsf                =   1.2750000000000E+05
(PID.TID 0000.0001) %MON dynstat_eta_max              =   5.7983024016613E+00
(PID.TID 0000.0001) %MON dynstat_eta_min              =  -1.4188075616389E+01
(PID.TID 0000.0001) %MON dynstat_eta_mean             =  -2.5033751360821E+00
(PID.TID 0000.0001) %MON dynstat_eta_sd               =   4.9497822034788E+00
(PID.TID 0000.0001) %MON dynstat_eta_del2             =   2.0715949896147E-01
(PID.TID 0000.0001) %MON dynstat_uvel_max             =   8.7601330211804E-03
(PID.TID 0000.0001) %MON dynstat_uvel_min             =  -4.0147335536873E-02
(PID.TID 0000.0001) %MON dynstat_uvel_mean            =  -1.0913433703408E-07
(PID.TID 0000.0001) %MON dynstat_uvel_sd              =   1.1596128006791E-03
(PID.TID 0000.0001) %MON dynstat_uvel_del2            =   1.7136278836869E-06
(PID.TID 0000.0001) %MON dynstat_vvel_max             =   2.8965432579309E-02
(PID.TID 0000.0001) %MON dynstat_vvel_min             =  -1.3231648502273E-02
(PID.TID 0000.0001) %MON dynstat_vvel_mean            =   1.5187223779338E-05
(PID.TID 0000.0001) %MON dynstat_vvel_sd              =   6.4413106062275E-04
(PID.TID 0000.0001) %MON dynstat_vvel_del2            =   1.3204792084112E-06
(PID.TID 0000.0001) %MON dynstat_wvel_max             =   1.5344837570290E-03
(PID.TID 0000.0001) %MON dynstat_wvel_min             =  -1.4743461494871E-03
(PID.TID 0000.0001) %MON dynstat_wvel_mean            =   6.9928447893279E-09
(PID.TID 0000.0001) %MON dynstat_wvel_sd              =   2.4794331160968E-05
(PID.TID 0000.0001) %MON dynstat_wvel_del2            =   1.0197997287276E-07
(PID.TID 0000.0001) %MON dynstat_theta_max            =   1.2000000000000E+00
(PID.TID 0000.0001) %MON dynstat_theta_min            =  -1.0000000000000E+00
(PID.TID 0000.0001) %MON dynstat_theta_mean           =   5.6851018712801E-01
(PID.TID 0000.0001) %MON dynstat_theta_sd             =   8.6826361895408E-01
(PID.TID 0000.0001) %MON dynstat_theta_del2           =   4.2251921774200E-06
(PID.TID 0000.0001) %MON dynstat_salt_max             =   3.4700000000000E+01
(PID.TID 0000.0001) %MON dynstat_salt_min             =   3.4000000000000E+01
(PID.TID 0000.0001) %MON dynstat_salt_mean            =   3.4499018203309E+01
(PID.TID 0000.0001) %MON dynstat_salt_sd              =   2.7624469708999E-01
(PID.TID 0000.0001) %MON dynstat_salt_del2            =   1.6716496770994E-06
(PID.TID 0000.0001) %MON advcfl_uvel_max              =   4.0147335536873E-03
(PID.TID 0000.0001) %MON advcfl_vvel_max              =   2.8965432579309E-03
(PID.TID 0000.0001) %MON advcfl_wvel_max              =   7.6724187851448E-03
(PID.TID 0000.0001) %MON advcfl_W_hf_max              =   7.6724187851448E-03
(PID.TID 0000.0001) %MON pe_b_mean                    =  -8.2955927177298E-01
(PID.TID 0000.0001) %MON ke_max                       =   6.2966989723725E-04
(PID.TID 0000.0001) %MON ke_mean                      =   8.6657930992251E-07
(PID.TID 0000.0001) %MON ke_vol                       =   4.2724699883997E+12
(PID.TID 0000.0001) // =======================================================
(PID.TID 0000.0001) // End MONITOR dynamic field statistics
(PID.TID 0000.0001) // =======================================================
(PID.TID 0000.0001) // =======================================================
(PID.TID 0000.0001) // Begin OBCS MONITOR field statistics
(PID.TID 0000.0001) // =======================================================
(PID.TID 0000.0001) %MON obc_N_vVel_max               =   1.4910189929126E-05
(PID.TID 0000.0001) %MON obc_N_vVel_min               =   1.4910189929125E-05
(PID.TID 0000.0001) %MON obc_N_vVel_mean              =   1.4910189929125E-05
(PID.TID 0000.0001) %MON obc_N_vVel_sd                =  -4.9113848870336E-25
(PID.TID 0000.0001) %MON obc_N_vVel_Int               =   9.8407253532228E+02
(PID.TID 0000.0001) // =======================================================
(PID.TID 0000.0001) // End OBCS MONITOR field statistics
(PID.TID 0000.0001) // =======================================================
 cg2d: Sum(rhs),rhsMax =   4.50681704559921E+00  2.99951356722967E+02
(PID.TID 0000.0001)      cg2d_init_res =   8.79078205961959E-06
(PID.TID 0000.0001)      cg2d_iters(min,last) =      -1      83
(PID.TID 0000.0001)      cg2d_last_res =   9.53209113146536E-12
(PID.TID 0000.0001) // =======================================================
(PID.TID 0000.0001) // Begin MONITOR dynamic field statistics
(PID.TID 0000.0001) // =======================================================
(PID.TID 0000.0001) %MON time_tsnumber                =                  1276
(PID.TID 0000.0001) %MON time_secondsf                =   1.2760000000000E+05
(PID.TID 0000.0001) %MON dynstat_eta_max              =   5.7982909957829E+00
(PID.TID 0000.0001) %MON dynstat_eta_min              =  -1.4188105469294E+01
(PID.TID 0000.0001) %MON dynstat_eta_mean             =  -2.5033812728327E+00
(PID.TID 0000.0001) %MON dynstat_eta_sd               =   4.9497846567240E+00
(PID.TID 0000.0001) %MON dynstat_eta_del2             =   2.0715954190014E-01
(PID.TID 0000.0001) %MON dynstat_uvel_max             =   8.7795025433692E-03
(PID.TID 0000.0001) %MON dynstat_uvel_min             =  -4.0242182201931E-02
(PID.TID 0000.0001) %MON dynstat_uvel_mean            =  -1.0907533273907E-07
(PID.TID 0000.0001) %MON dynstat_uvel_sd              =   1.1622662051387E-03
(PID.TID 0000.0001) %MON dynstat_uvel_del2            =   1.7177728286103E-06
(PID.TID 0000.0001) %MON dynstat_vvel_max             =   2.9016146818197E-02
(PID.TID 0000.0001) %MON dynstat_vvel_min             =  -1.3265193217087E-02
(PID.TID 0000.0001) %MON dynstat_vvel_mean            =   1.5161364588846E-05
(PID.TID 0000.0001) %MON dynstat_vvel_sd              =   6.4537498219397E-04
(PID.TID 0000.0001) %MON dynstat_vvel_del2            =   1.3231791112765E-06
(PID.TID 0000.0001) %MON dynstat_wvel_max             =   1.5375699035636E-03
(PID.TID 0000.0001) %MON dynstat_wvel_min             =  -1.4772719568024E-03
(PID.TID 0000.0001) %MON dynstat_wvel_mean            =   6.9578779161378E-09
(PID.TID 0000.0001) %MON dynstat_wvel_sd              =   2.4854620311847E-05
(PID.TID 0000.0001) %MON dynstat_wvel_del2            =   1.0223254540161E-07
(PID.TID 0000.0001) %MON dynstat_theta_max            =   1.2000000000000E+00
(PID.TID 0000.0001) %MON dynstat_theta_min            =  -1.0000000000000E+00
(PID.TID 0000.0001) %MON dynstat_theta_mean           =   5.6850894547751E-01
(PID.TID 0000.0001) %MON dynstat_theta_sd             =   8.6826295311561E-01
(PID.TID 0000.0001) %MON dynstat_theta_del2           =   4.2335306291306E-06
(PID.TID 0000.0001) %MON dynstat_salt_max             =   3.4700000000000E+01
(PID.TID 0000.0001) %MON dynstat_salt_min             =   3.4000000000000E+01
(PID.TID 0000.0001) %MON dynstat_salt_mean            =   3.4499017706321E+01
(PID.TID 0000.0001) %MON dynstat_salt_sd              =   2.7624444111102E-01
(PID.TID 0000.0001) %MON dynstat_salt_del2            =   1.6749793700598E-06
(PID.TID 0000.0001) %MON advcfl_uvel_max              =   4.0242182201931E-03
(PID.TID 0000.0001) %MON advcfl_vvel_max              =   2.9016146818197E-03
(PID.TID 0000.0001) %MON advcfl_wvel_max              =   7.6878495178179E-03
(PID.TID 0000.0001) %MON advcfl_W_hf_max              =   7.6878495178179E-03
(PID.TID 0000.0001) %MON pe_b_mean                    =  -8.2956052726627E-01
(PID.TID 0000.0001) %MON ke_max                       =   6.3297556189813E-04
(PID.TID 0000.0001) %MON ke_mean                      =   8.7040028602451E-07
(PID.TID 0000.0001) %MON ke_vol                       =   4.2724699516917E+12
(PID.TID 0000.0001) // =======================================================
(PID.TID 0000.0001) // End MONITOR dynamic field statistics
(PID.TID 0000.0001) // =======================================================
(PID.TID 0000.0001) // =======================================================
(PID.TID 0000.0001) // Begin OBCS MONITOR field statistics
(PID.TID 0000.0001) // =======================================================
(PID.TID 0000.0001) %MON obc_N_vVel_max               =   1.4887785746444E-05
(PID.TID 0000.0001) %MON obc_N_vVel_min               =   1.4887785746444E-05
(PID.TID 0000.0001) %MON obc_N_vVel_mean              =   1.4887785746444E-05
(PID.TID 0000.0001) %MON obc_N_vVel_sd                =  -5.0406318577450E-24
(PID.TID 0000.0001) %MON obc_N_vVel_Int               =   9.8259385926531E+02
(PID.TID 0000.0001) // =======================================================
(PID.TID 0000.0001) // End OBCS MONITOR field statistics
(PID.TID 0000.0001) // =======================================================
 cg2d: Sum(rhs),rhsMax =   4.50682687955703E+00  2.99951432296228E+02
(PID.TID 0000.0001)      cg2d_init_res =   8.79163451945335E-06
(PID.TID 0000.0001)      cg2d_iters(min,last) =      -1      83
(PID.TID 0000.0001)      cg2d_last_res =   9.53784185796422E-12
(PID.TID 0000.0001) // =======================================================
(PID.TID 0000.0001) // Begin MONITOR dynamic field statistics
(PID.TID 0000.0001) // =======================================================
(PID.TID 0000.0001) %MON time_tsnumber                =                  1277
(PID.TID 0000.0001) %MON time_secondsf                =   1.2770000000000E+05
(PID.TID 0000.0001) %MON dynstat_eta_max              =   5.7982796697467E+00
(PID.TID 0000.0001) %MON dynstat_eta_min              =  -1.4188135280756E+01
(PID.TID 0000.0001) %MON dynstat_eta_mean             =  -2.5033873659894E+00
(PID.TID 0000.0001) %MON dynstat_eta_sd               =   4.9497870963467E+00
(PID.TID 0000.0001) %MON dynstat_eta_del2             =   2.0715958489878E-01
(PID.TID 0000.0001) %MON dynstat_uvel_max             =   8.7989049584642E-03
(PID.TID 0000.0001) %MON dynstat_uvel_min             =  -4.0337165754231E-02
(PID.TID 0000.0001) %MON dynstat_uvel_mean            =  -1.0904808194992E-07
(PID.TID 0000.0001) %MON dynstat_uvel_sd              =   1.1649250690419E-03
(PID.TID 0000.0001) %MON dynstat_uvel_del2            =   1.7219280834764E-06
(PID.TID 0000.0001) %MON dynstat_vvel_max             =   2.9066869396594E-02
(PID.TID 0000.0001) %MON dynstat_vvel_min             =  -1.3298812647054E-02
(PID.TID 0000.0001) %MON dynstat_vvel_mean            =   1.5135300484550E-05
(PID.TID 0000.0001) %MON dynstat_vvel_sd              =   6.4662127118260E-04
(PID.TID 0000.0001) %MON dynstat_vvel_del2            =   1.3258812937761E-06
(PID.TID 0000.0001) %MON dynstat_wvel_max             =   1.5406578978066E-03
(PID.TID 0000.0001) %MON dynstat_wvel_min             =  -1.4801997153691E-03
(PID.TID 0000.0001) %MON dynstat_wvel_mean            =   6.9262333157349E-09
(PID.TID 0000.0001) %MON dynstat_wvel_sd              =   2.4912909422895E-05
(PID.TID 0000.0001) %MON dynstat_wvel_del2            =   1.0247364024445E-07
(PID.TID 0000.0001) %MON dynstat_theta_max            =   1.2000000000000E+00
(PID.TID 0000.0001) %MON dynstat_theta_min            =  -1.0000000000000E+00
(PID.TID 0000.0001) %MON dynstat_theta_mean           =   5.6850770166914E-01
(PID.TID 0000.0001) %MON dynstat_theta_sd             =   8.6826228616393E-01
(PID.TID 0000.0001) %MON dynstat_theta_del2           =   4.2418912568977E-06
(PID.TID 0000.0001) %MON dynstat_salt_max             =   3.4700000000000E+01
(PID.TID 0000.0001) %MON dynstat_salt_min             =   3.4000000000000E+01
(PID.TID 0000.0001) %MON dynstat_salt_mean            =   3.4499017208468E+01
(PID.TID 0000.0001) %MON dynstat_salt_sd              =   2.7624418471131E-01
(PID.TID 0000.0001) %MON dynstat_salt_del2            =   1.6783170029455E-06
(PID.TID 0000.0001) %MON advcfl_uvel_max              =   4.0337165754231E-03
(PID.TID 0000.0001) %MON advcfl_vvel_max              =   2.9066869396594E-03
(PID.TID 0000.0001) %MON advcfl_wvel_max              =   7.7032894890328E-03
(PID.TID 0000.0001) %MON advcfl_W_hf_max              =   7.7032894890328E-03
(PID.TID 0000.0001) %MON pe_b_mean                    =  -8.2956176974052E-01
(PID.TID 0000.0001) %MON ke_max                       =   6.3629594214166E-04
(PID.TID 0000.0001) %MON ke_mean                      =   8.7423747254015E-07
(PID.TID 0000.0001) %MON ke_vol                       =   4.2724699152394E+12
(PID.TID 0000.0001) // =======================================================
(PID.TID 0000.0001) // End MONITOR dynamic field statistics
(PID.TID 0000.0001) // =======================================================
(PID.TID 0000.0001) // =======================================================
(PID.TID 0000.0001) // Begin OBCS MONITOR field statistics
(PID.TID 0000.0001) // =======================================================
(PID.TID 0000.0001) %MON obc_N_vVel_max               =   1.4864921679681E-05
(PID.TID 0000.0001) %MON obc_N_vVel_min               =   1.4864921679681E-05
(PID.TID 0000.0001) %MON obc_N_vVel_mean              =   1.4864921679681E-05
(PID.TID 0000.0001) %MON obc_N_vVel_sd                =   3.2395762102112E-12
(PID.TID 0000.0001) %MON obc_N_vVel_Int               =   9.8108483085892E+02
(PID.TID 0000.0001) // =======================================================
(PID.TID 0000.0001) // End OBCS MONITOR field statistics
(PID.TID 0000.0001) // =======================================================
 cg2d: Sum(rhs),rhsMax =   4.50683663952352E+00  2.99951507559915E+02
(PID.TID 0000.0001)      cg2d_init_res =   8.79356786563417E-06
(PID.TID 0000.0001)      cg2d_iters(min,last) =      -1      83
(PID.TID 0000.0001)      cg2d_last_res =   9.54575101353088E-12
(PID.TID 0000.0001) // =======================================================
(PID.TID 0000.0001) // Begin MONITOR dynamic field statistics
(PID.TID 0000.0001) // =======================================================
(PID.TID 0000.0001) %MON time_tsnumber                =                  1278
(PID.TID 0000.0001) %MON time_secondsf                =   1.2780000000000E+05
(PID.TID 0000.0001) %MON dynstat_eta_max              =   5.7982684226025E+00
(PID.TID 0000.0001) %MON dynstat_eta_min              =  -1.4188165051337E+01
(PID.TID 0000.0001) %MON dynstat_eta_mean             =  -2.5033934154654E+00
(PID.TID 0000.0001) %MON dynstat_eta_sd               =   4.9497895226933E+00
(PID.TID 0000.0001) %MON dynstat_eta_del2             =   2.0715962795788E-01
(PID.TID 0000.0001) %MON dynstat_uvel_max             =   8.8183402547877E-03
(PID.TID 0000.0001) %MON dynstat_uvel_min             =  -4.0432286067913E-02
(PID.TID 0000.0001) %MON dynstat_uvel_mean            =  -1.0905219215615E-07
(PID.TID 0000.0001) %MON dynstat_uvel_sd              =   1.1675894007678E-03
(PID.TID 0000.0001) %MON dynstat_uvel_del2            =   1.7260936737295E-06
(PID.TID 0000.0001) %MON dynstat_vvel_max             =   2.9117600154335E-02
(PID.TID 0000.0001) %MON dynstat_vvel_min             =  -1.3332506836374E-02
(PID.TID 0000.0001) %MON dynstat_vvel_mean            =   1.5109500416999E-05
(PID.TID 0000.0001) %MON dynstat_vvel_sd              =   6.4786979491513E-04
(PID.TID 0000.0001) %MON dynstat_vvel_del2            =   1.3285847797894E-06
(PID.TID 0000.0001) %MON dynstat_wvel_max             =   1.5437477239491E-03
(PID.TID 0000.0001) %MON dynstat_wvel_min             =  -1.4831686420380E-03
(PID.TID 0000.0001) %MON dynstat_wvel_mean            =   6.8984668511684E-09
(PID.TID 0000.0001) %MON dynstat_wvel_sd              =   2.4968332818590E-05
(PID.TID 0000.0001) %MON dynstat_wvel_del2            =   1.0269844171390E-07
(PID.TID 0000.0001) %MON dynstat_theta_max            =   1.2000000000000E+00
(PID.TID 0000.0001) %MON dynstat_theta_min            =  -1.0000000000000E+00
(PID.TID 0000.0001) %MON dynstat_theta_mean           =   5.6850645570076E-01
(PID.TID 0000.0001) %MON dynstat_theta_sd             =   8.6826161809998E-01
(PID.TID 0000.0001) %MON dynstat_theta_del2           =   4.2502748560596E-06
(PID.TID 0000.0001) %MON dynstat_salt_max             =   3.4700000000000E+01
(PID.TID 0000.0001) %MON dynstat_salt_min             =   3.4000000000000E+01
(PID.TID 0000.0001) %MON dynstat_salt_mean            =   3.4499016709748E+01
(PID.TID 0000.0001) %MON dynstat_salt_sd              =   2.7624392789114E-01
(PID.TID 0000.0001) %MON dynstat_salt_del2            =   1.6816627438776E-06
(PID.TID 0000.0001) %MON advcfl_uvel_max              =   4.0432286067913E-03
(PID.TID 0000.0001) %MON advcfl_vvel_max              =   2.9117600154335E-03
(PID.TID 0000.0001) %MON advcfl_wvel_max              =   7.7187386197456E-03
(PID.TID 0000.0001) %MON advcfl_W_hf_max              =   7.7187386197456E-03
(PID.TID 0000.0001) %MON pe_b_mean                    =  -8.2956299928455E-01
(PID.TID 0000.0001) %MON ke_max                       =   6.3963108360953E-04
(PID.TID 0000.0001) %MON ke_mean                      =   8.7809085170025E-07
(PID.TID 0000.0001) %MON ke_vol                       =   4.2724698790460E+12
(PID.TID 0000.0001) // =======================================================
(PID.TID 0000.0001) // End MONITOR dynamic field statistics
(PID.TID 0000.0001) // =======================================================
(PID.TID 0000.0001) // =======================================================
(PID.TID 0000.0001) // Begin OBCS MONITOR field statistics
(PID.TID 0000.0001) // =======================================================
(PID.TID 0000.0001) %MON obc_N_vVel_max               =   1.4842010025686E-05
(PID.TID 0000.0001) %MON obc_N_vVel_min               =   1.4842010025685E-05
(PID.TID 0000.0001) %MON obc_N_vVel_mean              =   1.4842010025686E-05
(PID.TID 0000.0001) %MON obc_N_vVel_sd                =  -1.2536956159007E-23
(PID.TID 0000.0001) %MON obc_N_vVel_Int               =   9.7957266169525E+02
(PID.TID 0000.0001) // =======================================================
(PID.TID 0000.0001) // End OBCS MONITOR field statistics
(PID.TID 0000.0001) // =======================================================
 cg2d: Sum(rhs),rhsMax =   4.50684632580509E+00  2.99951582537873E+02
(PID.TID 0000.0001)      cg2d_init_res =   8.79668846978282E-06
(PID.TID 0000.0001)      cg2d_iters(min,last) =      -1      83
(PID.TID 0000.0001)      cg2d_last_res =   9.55579328040797E-12
(PID.TID 0000.0001) // =======================================================
(PID.TID 0000.0001) // Begin MONITOR dynamic field statistics
(PID.TID 0000.0001) // =======================================================
(PID.TID 0000.0001) %MON time_tsnumber                =                  1279
(PID.TID 0000.0001) %MON time_secondsf                =   1.2790000000000E+05
(PID.TID 0000.0001) %MON dynstat_eta_max              =   5.7982572526067E+00
(PID.TID 0000.0001) %MON dynstat_eta_min              =  -1.4188194782141E+01
(PID.TID 0000.0001) %MON dynstat_eta_mean             =  -2.5033994216301E+00
(PID.TID 0000.0001) %MON dynstat_eta_sd               =   4.9497919362525E+00
(PID.TID 0000.0001) %MON dynstat_eta_del2             =   2.0715967107804E-01
(PID.TID 0000.0001) %MON dynstat_uvel_max             =   8.8378084224807E-03
(PID.TID 0000.0001) %MON dynstat_uvel_min             =  -4.0527543010089E-02
(PID.TID 0000.0001) %MON dynstat_uvel_mean            =  -1.0908607919151E-07
(PID.TID 0000.0001) %MON dynstat_uvel_sd              =   1.1702592086714E-03
(PID.TID 0000.0001) %MON dynstat_uvel_del2            =   1.7302696241120E-06
(PID.TID 0000.0001) %MON dynstat_vvel_max             =   2.9168338928613E-02
(PID.TID 0000.0001) %MON dynstat_vvel_min             =  -1.3366275830782E-02
(PID.TID 0000.0001) %MON dynstat_vvel_mean            =   1.5084425612018E-05
(PID.TID 0000.0001) %MON dynstat_vvel_sd              =   6.4912045083517E-04
(PID.TID 0000.0001) %MON dynstat_vvel_del2            =   1.3312889057985E-06
(PID.TID 0000.0001) %MON dynstat_wvel_max             =   1.5468393661142E-03
(PID.TID 0000.0001) %MON dynstat_wvel_min             =  -1.4861932000976E-03
(PID.TID 0000.0001) %MON dynstat_wvel_mean            =   6.8750629267920E-09
(PID.TID 0000.0001) %MON dynstat_wvel_sd              =   2.5020243343254E-05
(PID.TID 0000.0001) %MON dynstat_wvel_del2            =   1.0290325364564E-07
(PID.TID 0000.0001) %MON dynstat_theta_max            =   1.2000000000000E+00
(PID.TID 0000.0001) %MON dynstat_theta_min            =  -1.0000000000000E+00
(PID.TID 0000.0001) %MON dynstat_theta_mean           =   5.6850520757039E-01
(PID.TID 0000.0001) %MON dynstat_theta_sd             =   8.6826094892538E-01
(PID.TID 0000.0001) %MON dynstat_theta_del2           =   4.2586818150170E-06
(PID.TID 0000.0001) %MON dynstat_salt_max             =   3.4700000000000E+01
(PID.TID 0000.0001) %MON dynstat_salt_min             =   3.4000000000000E+01
(PID.TID 0000.0001) %MON dynstat_salt_mean            =   3.4499016210161E+01
(PID.TID 0000.0001) %MON dynstat_salt_sd              =   2.7624367065085E-01
(PID.TID 0000.0001) %MON dynstat_salt_del2            =   1.6850166520966E-06
(PID.TID 0000.0001) %MON advcfl_uvel_max              =   4.0527543010089E-03
(PID.TID 0000.0001) %MON advcfl_vvel_max              =   2.9168338928613E-03
(PID.TID 0000.0001) %MON advcfl_wvel_max              =   7.7341968305709E-03
(PID.TID 0000.0001) %MON advcfl_W_hf_max              =   7.7341968305709E-03
(PID.TID 0000.0001) %MON pe_b_mean                    =  -8.2956421610337E-01
(PID.TID 0000.0001) %MON ke_max                       =   6.4298103175341E-04
(PID.TID 0000.0001) %MON ke_mean                      =   8.8196042462031E-07
(PID.TID 0000.0001) %MON ke_vol                       =   4.2724698431121E+12
(PID.TID 0000.0001) // =======================================================
(PID.TID 0000.0001) // End MONITOR dynamic field statistics
(PID.TID 0000.0001) // =======================================================
(PID.TID 0000.0001) // =======================================================
(PID.TID 0000.0001) // Begin OBCS MONITOR field statistics
(PID.TID 0000.0001) // =======================================================
(PID.TID 0000.0001) %MON obc_N_vVel_max               =   1.4819461150604E-05
(PID.TID 0000.0001) %MON obc_N_vVel_min               =   1.4819461150603E-05
(PID.TID 0000.0001) %MON obc_N_vVel_mean              =   1.4819461150603E-05
(PID.TID 0000.0001) %MON obc_N_vVel_sd                =   2.7801023090063E-12
(PID.TID 0000.0001) %MON obc_N_vVel_Int               =   9.7808443593982E+02
(PID.TID 0000.0001) // =======================================================
(PID.TID 0000.0001) // End OBCS MONITOR field statistics
(PID.TID 0000.0001) // =======================================================
 cg2d: Sum(rhs),rhsMax =   4.50685593943437E+00  2.99951657259008E+02
(PID.TID 0000.0001)      cg2d_init_res =   8.80108656324839E-06
(PID.TID 0000.0001)      cg2d_iters(min,last) =      -1      83
(PID.TID 0000.0001)      cg2d_last_res =   9.56789194503690E-12
(PID.TID 0000.0001) // =======================================================
(PID.TID 0000.0001) // Begin MONITOR dynamic field statistics
(PID.TID 0000.0001) // =======================================================
(PID.TID 0000.0001) %MON time_tsnumber                =                  1280
(PID.TID 0000.0001) %MON time_secondsf                =   1.2800000000000E+05
(PID.TID 0000.0001) %MON dynstat_eta_max              =   5.7982461572449E+00
(PID.TID 0000.0001) %MON dynstat_eta_min              =  -1.4188224474806E+01
(PID.TID 0000.0001) %MON dynstat_eta_mean             =  -2.5034053852980E+00
(PID.TID 0000.0001) %MON dynstat_eta_sd               =   4.9497943376452E+00
(PID.TID 0000.0001) %MON dynstat_eta_del2             =   2.0715971425991E-01
(PID.TID 0000.0001) %MON dynstat_uvel_max             =   8.8573094538411E-03
(PID.TID 0000.0001) %MON dynstat_uvel_min             =  -4.0622936440494E-02
(PID.TID 0000.0001) %MON dynstat_uvel_mean            =  -1.0914718239412E-07
(PID.TID 0000.0001) %MON dynstat_uvel_sd              =   1.1729345010844E-03
(PID.TID 0000.0001) %MON dynstat_uvel_del2            =   1.7344559586186E-06
(PID.TID 0000.0001) %MON dynstat_vvel_max             =   2.9219085552708E-02
(PID.TID 0000.0001) %MON dynstat_vvel_min             =  -1.3400119679133E-02
(PID.TID 0000.0001) %MON dynstat_vvel_mean            =   1.5060521468060E-05
(PID.TID 0000.0001) %MON dynstat_vvel_sd              =   6.5037317319748E-04
(PID.TID 0000.0001) %MON dynstat_vvel_del2            =   1.3339933672843E-06
(PID.TID 0000.0001) %MON dynstat_wvel_max             =   1.5499328084217E-03
(PID.TID 0000.0001) %MON dynstat_wvel_min             =  -1.4892202343574E-03
(PID.TID 0000.0001) %MON dynstat_wvel_mean            =   6.8564253027650E-09
(PID.TID 0000.0001) %MON dynstat_wvel_sd              =   2.5068252763292E-05
(PID.TID 0000.0001) %MON dynstat_wvel_del2            =   1.0308572953090E-07
(PID.TID 0000.0001) %MON dynstat_theta_max            =   1.2000000000000E+00
(PID.TID 0000.0001) %MON dynstat_theta_min            =  -1.0000000000000E+00
(PID.TID 0000.0001) %MON dynstat_theta_mean           =   5.6850395727621E-01
(PID.TID 0000.0001) %MON dynstat_theta_sd             =   8.6826027863924E-01
(PID.TID 0000.0001) %MON dynstat_theta_del2           =   4.2671120610533E-06
(PID.TID 0000.0001) %MON dynstat_salt_max             =   3.4700000000000E+01
(PID.TID 0000.0001) %MON dynstat_salt_min             =   3.4000000000000E+01
(PID.TID 0000.0001) %MON dynstat_salt_mean            =   3.4499015709705E+01
(PID.TID 0000.0001) %MON dynstat_salt_sd              =   2.7624341299041E-01
(PID.TID 0000.0001) %MON dynstat_salt_del2            =   1.6883786770605E-06
(PID.TID 0000.0001) %MON advcfl_uvel_max              =   4.0622936440494E-03
(PID.TID 0000.0001) %MON advcfl_vvel_max              =   2.9219085552708E-03
(PID.TID 0000.0001) %MON advcfl_wvel_max              =   7.7496640421086E-03
(PID.TID 0000.0001) %MON advcfl_W_hf_max              =   7.7496640421086E-03
(PID.TID 0000.0001) %MON pe_b_mean                    =  -8.2956542051357E-01
(PID.TID 0000.0001) %MON ke_max                       =   6.4634583182473E-04
(PID.TID 0000.0001) %MON ke_mean                      =   8.8584621572180E-07
(PID.TID 0000.0001) %MON ke_vol                       =   4.2724698074355E+12
(PID.TID 0000.0001) // =======================================================
(PID.TID 0000.0001) // End MONITOR dynamic field statistics
(PID.TID 0000.0001) // =======================================================
(PID.TID 0000.0001) // =======================================================
(PID.TID 0000.0001) // Begin OBCS MONITOR field statistics
(PID.TID 0000.0001) // =======================================================
(PID.TID 0000.0001) %MON obc_N_vVel_max               =   1.4797676305471E-05
(PID.TID 0000.0001) %MON obc_N_vVel_min               =   1.4797676305470E-05
(PID.TID 0000.0001) %MON obc_N_vVel_mean              =   1.4797676305471E-05
(PID.TID 0000.0001) %MON obc_N_vVel_sd                =  -1.5096046179093E-23
(PID.TID 0000.0001) %MON obc_N_vVel_Int               =   9.7664663616107E+02
(PID.TID 0000.0001) // =======================================================
(PID.TID 0000.0001) // End OBCS MONITOR field statistics
(PID.TID 0000.0001) // =======================================================
 cg2d: Sum(rhs),rhsMax =   4.50686548215650E+00  2.99951731755932E+02
(PID.TID 0000.0001)      cg2d_init_res =   8.80684113122613E-06
(PID.TID 0000.0001)      cg2d_iters(min,last) =      -1      83
(PID.TID 0000.0001)      cg2d_last_res =   9.58192892870800E-12
(PID.TID 0000.0001) // =======================================================
(PID.TID 0000.0001) // Begin MONITOR dynamic field statistics
(PID.TID 0000.0001) // =======================================================
(PID.TID 0000.0001) %MON time_tsnumber                =                  1281
(PID.TID 0000.0001) %MON time_secondsf                =   1.2810000000000E+05
(PID.TID 0000.0001) %MON dynstat_eta_max              =   5.7982351332970E+00
(PID.TID 0000.0001) %MON dynstat_eta_min              =  -1.4188254131459E+01
(PID.TID 0000.0001) %MON dynstat_eta_mean             =  -2.5034113077109E+00
(PID.TID 0000.0001) %MON dynstat_eta_sd               =   4.9497967276109E+00
(PID.TID 0000.0001) %MON dynstat_eta_del2             =   2.0715975750419E-01
(PID.TID 0000.0001) %MON dynstat_uvel_max             =   8.8768433440549E-03
(PID.TID 0000.0001) %MON dynstat_uvel_min             =  -4.0718466211191E-02
(PID.TID 0000.0001) %MON dynstat_uvel_mean            =  -1.0923223028808E-07
(PID.TID 0000.0001) %MON dynstat_uvel_sd              =   1.1756152863239E-03
(PID.TID 0000.0001) %MON dynstat_uvel_del2            =   1.7386527003205E-06
(PID.TID 0000.0001) %MON dynstat_vvel_max             =   2.9269839854371E-02
(PID.TID 0000.0001) %MON dynstat_vvel_min             =  -1.3434038435374E-02
(PID.TID 0000.0001) %MON dynstat_vvel_mean            =   1.5038209765495E-05
(PID.TID 0000.0001) %MON dynstat_vvel_sd              =   6.5162793692174E-04
(PID.TID 0000.0001) %MON dynstat_vvel_del2            =   1.3366982391411E-06
(PID.TID 0000.0001) %MON dynstat_wvel_max             =   1.5530280349233E-03
(PID.TID 0000.0001) %MON dynstat_wvel_min             =  -1.4922497368391E-03
(PID.TID 0000.0001) %MON dynstat_wvel_mean            =   6.8428718640033E-09
(PID.TID 0000.0001) %MON dynstat_wvel_sd              =   2.5112254074538E-05
(PID.TID 0000.0001) %MON dynstat_wvel_del2            =   1.0324501474749E-07
(PID.TID 0000.0001) %MON dynstat_theta_max            =   1.2000000000000E+00
(PID.TID 0000.0001) %MON dynstat_theta_min            =  -1.0000000000000E+00
(PID.TID 0000.0001) %MON dynstat_theta_mean           =   5.6850270481644E-01
(PID.TID 0000.0001) %MON dynstat_theta_sd             =   8.6825960724183E-01
(PID.TID 0000.0001) %MON dynstat_theta_del2           =   4.2755650510277E-06
(PID.TID 0000.0001) %MON dynstat_salt_max             =   3.4700000000000E+01
(PID.TID 0000.0001) %MON dynstat_salt_min             =   3.4000000000000E+01
(PID.TID 0000.0001) %MON dynstat_salt_mean            =   3.4499015208380E+01
(PID.TID 0000.0001) %MON dynstat_salt_sd              =   2.7624315490976E-01
(PID.TID 0000.0001) %MON dynstat_salt_del2            =   1.6917486244406E-06
(PID.TID 0000.0001) %MON advcfl_uvel_max              =   4.0718466211191E-03
(PID.TID 0000.0001) %MON advcfl_vvel_max              =   2.9269839854371E-03
(PID.TID 0000.0001) %MON advcfl_wvel_max              =   7.7651401746163E-03
(PID.TID 0000.0001) %MON advcfl_W_hf_max              =   7.7651401746164E-03
(PID.TID 0000.0001) %MON pe_b_mean                    =  -8.2956661293649E-01
(PID.TID 0000.0001) %MON ke_max                       =   6.4972552887227E-04
(PID.TID 0000.0001) %MON ke_mean                      =   8.8974827537264E-07
(PID.TID 0000.0001) %MON ke_vol                       =   4.2724697720113E+12
(PID.TID 0000.0001) // =======================================================
(PID.TID 0000.0001) // End MONITOR dynamic field statistics
(PID.TID 0000.0001) // =======================================================
(PID.TID 0000.0001) // =======================================================
(PID.TID 0000.0001) // Begin OBCS MONITOR field statistics
(PID.TID 0000.0001) // =======================================================
(PID.TID 0000.0001) %MON obc_N_vVel_max               =   1.4777040500555E-05
(PID.TID 0000.0001) %MON obc_N_vVel_min               =   1.4777040500555E-05
(PID.TID 0000.0001) %MON obc_N_vVel_mean              =   1.4777040500555E-05
(PID.TID 0000.0001) %MON obc_N_vVel_sd                =  -2.2799165633493E-23
(PID.TID 0000.0001) %MON obc_N_vVel_Int               =   9.7528467303664E+02
(PID.TID 0000.0001) // =======================================================
(PID.TID 0000.0001) // End OBCS MONITOR field statistics
(PID.TID 0000.0001) // =======================================================
 cg2d: Sum(rhs),rhsMax =   4.50687495639073E+00  2.99951806064519E+02
(PID.TID 0000.0001)      cg2d_init_res =   8.81401496291406E-06
(PID.TID 0000.0001)      cg2d_iters(min,last) =      -1      83
(PID.TID 0000.0001)      cg2d_last_res =   9.59771372379953E-12
(PID.TID 0000.0001) // =======================================================
(PID.TID 0000.0001) // Begin MONITOR dynamic field statistics
(PID.TID 0000.0001) // =======================================================
(PID.TID 0000.0001) %MON time_tsnumber                =                  1282
(PID.TID 0000.0001) %MON time_secondsf                =   1.2820000000000E+05
(PID.TID 0000.0001) %MON dynstat_eta_max              =   5.7982241766768E+00
(PID.TID 0000.0001) %MON dynstat_eta_min              =  -1.4188283754681E+01
(PID.TID 0000.0001) %MON dynstat_eta_mean             =  -2.5034171905118E+00
(PID.TID 0000.0001) %MON dynstat_eta_sd               =   4.9497991069961E+00
(PID.TID 0000.0001) %MON dynstat_eta_del2             =   2.0715980081173E-01
(PID.TID 0000.0001) %MON dynstat_uvel_max             =   8.8964100917934E-03
(PID.TID 0000.0001) %MON dynstat_uvel_min             =  -4.0814132166624E-02
(PID.TID 0000.0001) %MON dynstat_uvel_mean            =  -1.0933751851000E-07
(PID.TID 0000.0001) %MON dynstat_uvel_sd              =   1.1783015726931E-03
(PID.TID 0000.0001) %MON dynstat_uvel_del2            =   1.7428598716543E-06
(PID.TID 0000.0001) %MON dynstat_vvel_max             =   2.9320601654796E-02
(PID.TID 0000.0001) %MON dynstat_vvel_min             =  -1.3468032160246E-02
(PID.TID 0000.0001) %MON dynstat_vvel_mean            =   1.5017881333952E-05
(PID.TID 0000.0001) %MON dynstat_vvel_sd              =   6.5288475839586E-04
(PID.TID 0000.0001) %MON dynstat_vvel_del2            =   1.3394039693594E-06
(PID.TID 0000.0001) %MON dynstat_wvel_max             =   1.5561250296692E-03
(PID.TID 0000.0001) %MON dynstat_wvel_min             =  -1.4952816992717E-03
(PID.TID 0000.0001) %MON dynstat_wvel_mean            =   6.8346278576588E-09
(PID.TID 0000.0001) %MON dynstat_wvel_sd              =   2.5152424621282E-05
(PID.TID 0000.0001) %MON dynstat_wvel_del2            =   1.0338179357170E-07
(PID.TID 0000.0001) %MON dynstat_theta_max            =   1.2000000000000E+00
(PID.TID 0000.0001) %MON dynstat_theta_min            =  -1.0000000000000E+00
(PID.TID 0000.0001) %MON dynstat_theta_mean           =   5.6850145018934E-01
(PID.TID 0000.0001) %MON dynstat_theta_sd             =   8.6825893473412E-01
(PID.TID 0000.0001) %MON dynstat_theta_del2           =   4.2840397079159E-06
(PID.TID 0000.0001) %MON dynstat_salt_max             =   3.4700000000000E+01
(PID.TID 0000.0001) %MON dynstat_salt_min             =   3.4000000000000E+01
(PID.TID 0000.0001) %MON dynstat_salt_mean            =   3.4499014706185E+01
(PID.TID 0000.0001) %MON dynstat_salt_sd              =   2.7624289640926E-01
(PID.TID 0000.0001) %MON dynstat_salt_del2            =   1.6951261867547E-06
(PID.TID 0000.0001) %MON advcfl_uvel_max              =   4.0814132166624E-03
(PID.TID 0000.0001) %MON advcfl_vvel_max              =   2.9320601654796E-03
(PID.TID 0000.0001) %MON advcfl_wvel_max              =   7.7806251483458E-03
(PID.TID 0000.0001) %MON advcfl_W_hf_max              =   7.7806251483458E-03
(PID.TID 0000.0001) %MON pe_b_mean                    =  -8.2956779389003E-01
(PID.TID 0000.0001) %MON ke_max                       =   6.5312016774084E-04
(PID.TID 0000.0001) %MON ke_mean                      =   8.9366668056541E-07
(PID.TID 0000.0001) %MON ke_vol                       =   4.2724697368322E+12
(PID.TID 0000.0001) // =======================================================
(PID.TID 0000.0001) // End MONITOR dynamic field statistics
(PID.TID 0000.0001) // =======================================================
(PID.TID 0000.0001) // =======================================================
(PID.TID 0000.0001) // Begin OBCS MONITOR field statistics
(PID.TID 0000.0001) // =======================================================
(PID.TID 0000.0001) %MON obc_N_vVel_max               =   1.4757915906455E-05
(PID.TID 0000.0001) %MON obc_N_vVel_min               =   1.4757915906454E-05
(PID.TID 0000.0001) %MON obc_N_vVel_mean              =   1.4757915906455E-05
(PID.TID 0000.0001) %MON obc_N_vVel_sd                =  -1.3803576471979E-23
(PID.TID 0000.0001) %MON obc_N_vVel_Int               =   9.7402244982601E+02
(PID.TID 0000.0001) // =======================================================
(PID.TID 0000.0001) // End OBCS MONITOR field statistics
(PID.TID 0000.0001) // =======================================================
 cg2d: Sum(rhs),rhsMax =   4.50688436518818E+00  2.99951880223058E+02
(PID.TID 0000.0001)      cg2d_init_res =   8.82265771124910E-06
(PID.TID 0000.0001)      cg2d_iters(min,last) =      -1      83
(PID.TID 0000.0001)      cg2d_last_res =   9.61507831935252E-12
(PID.TID 0000.0001) // =======================================================
(PID.TID 0000.0001) // Begin MONITOR dynamic field statistics
(PID.TID 0000.0001) // =======================================================
(PID.TID 0000.0001) %MON time_tsnumber                =                  1283
(PID.TID 0000.0001) %MON time_secondsf                =   1.2830000000000E+05
(PID.TID 0000.0001) %MON dynstat_eta_max              =   5.7982132831555E+00
(PID.TID 0000.0001) %MON dynstat_eta_min              =  -1.4188313347440E+01
(PID.TID 0000.0001) %MON dynstat_eta_mean             =  -2.5034230357150E+00
(PID.TID 0000.0001) %MON dynstat_eta_sd               =   4.9498014767383E+00
(PID.TID 0000.0001) %MON dynstat_eta_del2             =   2.0715984418336E-01
(PID.TID 0000.0001) %MON dynstat_uvel_max             =   8.9160096995293E-03
(PID.TID 0000.0001) %MON dynstat_uvel_min             =  -4.0909934143243E-02
(PID.TID 0000.0001) %MON dynstat_uvel_mean            =  -1.0945918003401E-07
(PID.TID 0000.0001) %MON dynstat_uvel_sd              =   1.1809933684914E-03
(PID.TID 0000.0001) %MON dynstat_uvel_del2            =   1.7470774944764E-06
(PID.TID 0000.0001) %MON dynstat_vvel_max             =   2.9371370767425E-02
(PID.TID 0000.0001) %MON dynstat_vvel_min             =  -1.3502100922915E-02
(PID.TID 0000.0001) %MON dynstat_vvel_mean            =   1.4999889284520E-05
(PID.TID 0000.0001) %MON dynstat_vvel_sd              =   6.5414369319056E-04
(PID.TID 0000.0001) %MON dynstat_vvel_del2            =   1.3421113457868E-06
(PID.TID 0000.0001) %MON dynstat_wvel_max             =   1.5592237766580E-03
(PID.TID 0000.0001) %MON dynstat_wvel_min             =  -1.4983161128467E-03
(PID.TID 0000.0001) %MON dynstat_wvel_mean            =   6.8318226970972E-09
(PID.TID 0000.0001) %MON dynstat_wvel_sd              =   2.5189210083246E-05
(PID.TID 0000.0001) %MON dynstat_wvel_del2            =   1.0349823787313E-07
(PID.TID 0000.0001) %MON dynstat_theta_max            =   1.2000000000000E+00
(PID.TID 0000.0001) %MON dynstat_theta_min            =  -1.0000000000000E+00
(PID.TID 0000.0001) %MON dynstat_theta_mean           =   5.6850019339348E-01
(PID.TID 0000.0001) %MON dynstat_theta_sd             =   8.6825826111610E-01
(PID.TID 0000.0001) %MON dynstat_theta_del2           =   4.2925345238616E-06
(PID.TID 0000.0001) %MON dynstat_salt_max             =   3.4700000000000E+01
(PID.TID 0000.0001) %MON dynstat_salt_min             =   3.4000000000000E+01
(PID.TID 0000.0001) %MON dynstat_salt_mean            =   3.4499014203119E+01
(PID.TID 0000.0001) %MON dynstat_salt_sd              =   2.7624263748892E-01
(PID.TID 0000.0001) %MON dynstat_salt_del2            =   1.6985109526166E-06
(PID.TID 0000.0001) %MON advcfl_uvel_max              =   4.0909934143243E-03
(PID.TID 0000.0001) %MON advcfl_vvel_max              =   2.9371370767425E-03
(PID.TID 0000.0001) %MON advcfl_wvel_max              =   7.7961188832902E-03
(PID.TID 0000.0001) %MON advcfl_W_hf_max              =   7.7961188832902E-03
(PID.TID 0000.0001) %MON pe_b_mean                    =  -8.2956896397908E-01
(PID.TID 0000.0001) %MON ke_max                       =   6.5652979306988E-04
(PID.TID 0000.0001) %MON ke_mean                      =   8.9760153360549E-07
(PID.TID 0000.0001) %MON ke_vol                       =   4.2724697018884E+12
(PID.TID 0000.0001) // =======================================================
(PID.TID 0000.0001) // End MONITOR dynamic field statistics
(PID.TID 0000.0001) // =======================================================
(PID.TID 0000.0001) // =======================================================
(PID.TID 0000.0001) // Begin OBCS MONITOR field statistics
(PID.TID 0000.0001) // =======================================================
(PID.TID 0000.0001) %MON obc_N_vVel_max               =   1.4740635513304E-05
(PID.TID 0000.0001) %MON obc_N_vVel_min               =   1.4740635513304E-05
(PID.TID 0000.0001) %MON obc_N_vVel_mean              =   1.4740635513304E-05
(PID.TID 0000.0001) %MON obc_N_vVel_sd                =   4.2507324669350E-12
(PID.TID 0000.0001) %MON obc_N_vVel_Int               =   9.7288194387804E+02
(PID.TID 0000.0001) // =======================================================
(PID.TID 0000.0001) // End OBCS MONITOR field statistics
(PID.TID 0000.0001) // =======================================================
 cg2d: Sum(rhs),rhsMax =   4.50689371217199E+00  2.99951954271416E+02
(PID.TID 0000.0001)      cg2d_init_res =   8.83280458672123E-06
(PID.TID 0000.0001)      cg2d_iters(min,last) =      -1      83
(PID.TID 0000.0001)      cg2d_last_res =   9.63380896048002E-12
(PID.TID 0000.0001) // =======================================================
(PID.TID 0000.0001) // Begin MONITOR dynamic field statistics
(PID.TID 0000.0001) // =======================================================
(PID.TID 0000.0001) %MON time_tsnumber                =                  1284
(PID.TID 0000.0001) %MON time_secondsf                =   1.2840000000000E+05
(PID.TID 0000.0001) %MON dynstat_eta_max              =   5.7982024477797E+00
(PID.TID 0000.0001) %MON dynstat_eta_min              =  -1.4188342913066E+01
(PID.TID 0000.0001) %MON dynstat_eta_mean             =  -2.5034288456658E+00
(PID.TID 0000.0001) %MON dynstat_eta_sd               =   4.9498038378483E+00
(PID.TID 0000.0001) %MON dynstat_eta_del2             =   2.0715988761992E-01
(PID.TID 0000.0001) %MON dynstat_uvel_max             =   8.9356421739382E-03
(PID.TID 0000.0001) %MON dynstat_uvel_min             =  -4.1005871969540E-02
(PID.TID 0000.0001) %MON dynstat_uvel_mean            =  -1.0959341766495E-07
(PID.TID 0000.0001) %MON dynstat_uvel_sd              =   1.1836906820252E-03
(PID.TID 0000.0001) %MON dynstat_uvel_del2            =   1.7513055902756E-06
(PID.TID 0000.0001) %MON dynstat_vvel_max             =   2.9422146996850E-02
(PID.TID 0000.0001) %MON dynstat_vvel_min             =  -1.3536244802324E-02
(PID.TID 0000.0001) %MON dynstat_vvel_mean            =   1.4984542941957E-05
(PID.TID 0000.0001) %MON dynstat_vvel_sd              =   6.5540483093187E-04
(PID.TID 0000.0001) %MON dynstat_vvel_del2            =   1.3448214394265E-06
(PID.TID 0000.0001) %MON dynstat_wvel_max             =   1.5623242598564E-03
(PID.TID 0000.0001) %MON dynstat_wvel_min             =  -1.5013529682548E-03
(PID.TID 0000.0001) %MON dynstat_wvel_mean            =   6.8344887478371E-09
(PID.TID 0000.0001) %MON dynstat_wvel_sd              =   2.5223290606422E-05
(PID.TID 0000.0001) %MON dynstat_wvel_del2            =   1.0359786123865E-07
(PID.TID 0000.0001) %MON dynstat_theta_max            =   1.2000000000000E+00
(PID.TID 0000.0001) %MON dynstat_theta_min            =  -1.0000000000000E+00
(PID.TID 0000.0001) %MON dynstat_theta_mean           =   5.6849893442749E-01
(PID.TID 0000.0001) %MON dynstat_theta_sd             =   8.6825758638885E-01
(PID.TID 0000.0001) %MON dynstat_theta_del2           =   4.3010478950835E-06
(PID.TID 0000.0001) %MON dynstat_salt_max             =   3.4700000000000E+01
(PID.TID 0000.0001) %MON dynstat_salt_min             =   3.4000000000000E+01
(PID.TID 0000.0001) %MON dynstat_salt_mean            =   3.4499013699181E+01
(PID.TID 0000.0001) %MON dynstat_salt_sd              =   2.7624237814909E-01
(PID.TID 0000.0001) %MON dynstat_salt_del2            =   1.7019024218958E-06
(PID.TID 0000.0001) %MON advcfl_uvel_max              =   4.1005871969540E-03
(PID.TID 0000.0001) %MON advcfl_vvel_max              =   2.9422146996850E-03
(PID.TID 0000.0001) %MON advcfl_wvel_max              =   7.8116212992818E-03
(PID.TID 0000.0001) %MON advcfl_W_hf_max              =   7.8116212992818E-03
(PID.TID 0000.0001) %MON pe_b_mean                    =  -8.2957012388367E-01
(PID.TID 0000.0001) %MON ke_max                       =   6.5995444929832E-04
(PID.TID 0000.0001) %MON ke_mean                      =   9.0155295893202E-07
(PID.TID 0000.0001) %MON ke_vol                       =   4.2724696671679E+12
(PID.TID 0000.0001) // =======================================================
(PID.TID 0000.0001) // End MONITOR dynamic field statistics
(PID.TID 0000.0001) // =======================================================
(PID.TID 0000.0001) // =======================================================
(PID.TID 0000.0001) // Begin OBCS MONITOR field statistics
(PID.TID 0000.0001) // =======================================================
(PID.TID 0000.0001) %MON obc_N_vVel_max               =   1.4725497355741E-05
(PID.TID 0000.0001) %MON obc_N_vVel_min               =   1.4725497355740E-05
(PID.TID 0000.0001) %MON obc_N_vVel_mean              =   1.4725497355741E-05
(PID.TID 0000.0001) %MON obc_N_vVel_sd                =  -8.5044506728108E-24
(PID.TID 0000.0001) %MON obc_N_vVel_Int               =   9.7188282547889E+02
(PID.TID 0000.0001) // =======================================================
(PID.TID 0000.0001) // End OBCS MONITOR field statistics
(PID.TID 0000.0001) // =======================================================
 cg2d: Sum(rhs),rhsMax =   4.50690300147008E+00  2.99952028250158E+02
(PID.TID 0000.0001)      cg2d_init_res =   8.84447237647454E-06
(PID.TID 0000.0001)      cg2d_iters(min,last) =      -1      83
(PID.TID 0000.0001)      cg2d_last_res =   9.65366907735309E-12
(PID.TID 0000.0001) // =======================================================
(PID.TID 0000.0001) // Begin MONITOR dynamic field statistics
(PID.TID 0000.0001) // =======================================================
(PID.TID 0000.0001) %MON time_tsnumber                =                  1285
(PID.TID 0000.0001) %MON time_secondsf                =   1.2850000000000E+05
(PID.TID 0000.0001) %MON dynstat_eta_max              =   5.7981916651388E+00
(PID.TID 0000.0001) %MON dynstat_eta_min              =  -1.4188372455160E+01
(PID.TID 0000.0001) %MON dynstat_eta_mean             =  -2.5034346229957E+00
(PID.TID 0000.0001) %MON dynstat_eta_sd               =   4.9498061913895E+00
(PID.TID 0000.0001) %MON dynstat_eta_del2             =   2.0715993112223E-01
(PID.TID 0000.0001) %MON dynstat_uvel_max             =   8.9553075261151E-03
(PID.TID 0000.0001) %MON dynstat_uvel_min             =  -4.1102394630224E-02
(PID.TID 0000.0001) %MON dynstat_uvel_mean            =  -1.0973667591004E-07
(PID.TID 0000.0001) %MON dynstat_uvel_sd              =   1.1863935216198E-03
(PID.TID 0000.0001) %MON dynstat_uvel_del2            =   1.7555441803366E-06
(PID.TID 0000.0001) %MON dynstat_vvel_max             =   2.9472930137836E-02
(PID.TID 0000.0001) %MON dynstat_vvel_min             =  -1.3570463888367E-02
(PID.TID 0000.0001) %MON dynstat_vvel_mean            =   1.4972102587176E-05
(PID.TID 0000.0001) %MON dynstat_vvel_sd              =   6.5666828773847E-04
(PID.TID 0000.0001) %MON dynstat_vvel_del2            =   1.3475355279363E-06
(PID.TID 0000.0001) %MON dynstat_wvel_max             =   1.5654264632055E-03
(PID.TID 0000.0001) %MON dynstat_wvel_min             =  -1.5043922556888E-03
(PID.TID 0000.0001) %MON dynstat_wvel_mean            =   6.8425601850937E-09
(PID.TID 0000.0001) %MON dynstat_wvel_sd              =   2.5255531380903E-05
(PID.TID 0000.0001) %MON dynstat_wvel_del2            =   1.0368528582234E-07
(PID.TID 0000.0001) %MON dynstat_theta_max            =   1.2000000000000E+00
(PID.TID 0000.0001) %MON dynstat_theta_min            =  -1.0000000000000E+00
(PID.TID 0000.0001) %MON dynstat_theta_mean           =   5.6849767329004E-01
(PID.TID 0000.0001) %MON dynstat_theta_sd             =   8.6825691055219E-01
(PID.TID 0000.0001) %MON dynstat_theta_del2           =   4.3095778010600E-06
(PID.TID 0000.0001) %MON dynstat_salt_max             =   3.4700000000000E+01
(PID.TID 0000.0001) %MON dynstat_salt_min             =   3.4000000000000E+01
(PID.TID 0000.0001) %MON dynstat_salt_mean            =   3.4499013194370E+01
(PID.TID 0000.0001) %MON dynstat_salt_sd              =   2.7624211838954E-01
(PID.TID 0000.0001) %MON dynstat_salt_del2            =   1.7053000323605E-06
(PID.TID 0000.0001) %MON advcfl_uvel_max              =   4.1102394630224E-03
(PID.TID 0000.0001) %MON advcfl_vvel_max              =   2.9472930137836E-03
(PID.TID 0000.0001) %MON advcfl_wvel_max              =   7.8271323160273E-03
(PID.TID 0000.0001) %MON advcfl_W_hf_max              =   7.8271323160273E-03
(PID.TID 0000.0001) %MON pe_b_mean                    =  -8.2957127434611E-01
(PID.TID 0000.0001) %MON ke_max                       =   6.6339418066313E-04
(PID.TID 0000.0001) %MON ke_mean                      =   9.0552109831558E-07
(PID.TID 0000.0001) %MON ke_vol                       =   4.2724696326567E+12
(PID.TID 0000.0001) // =======================================================
(PID.TID 0000.0001) // End MONITOR dynamic field statistics
(PID.TID 0000.0001) // =======================================================
(PID.TID 0000.0001) // =======================================================
(PID.TID 0000.0001) // Begin OBCS MONITOR field statistics
(PID.TID 0000.0001) // =======================================================
(PID.TID 0000.0001) %MON obc_N_vVel_max               =   1.4712759481549E-05
(PID.TID 0000.0001) %MON obc_N_vVel_min               =   1.4712759481548E-05
(PID.TID 0000.0001) %MON obc_N_vVel_mean              =   1.4712759481549E-05
(PID.TID 0000.0001) %MON obc_N_vVel_sd                =  -9.3057818912216E-24
(PID.TID 0000.0001) %MON obc_N_vVel_Int               =   9.7104212578220E+02
(PID.TID 0000.0001) // =======================================================
(PID.TID 0000.0001) // End OBCS MONITOR field statistics
(PID.TID 0000.0001) // =======================================================
 cg2d: Sum(rhs),rhsMax =   4.50691223763862E+00  2.99952102199779E+02
(PID.TID 0000.0001)      cg2d_init_res =   8.85766006443363E-06
(PID.TID 0000.0001)      cg2d_iters(min,last) =      -1      83
(PID.TID 0000.0001)      cg2d_last_res =   9.67443047974992E-12
(PID.TID 0000.0001) // =======================================================
(PID.TID 0000.0001) // Begin MONITOR dynamic field statistics
(PID.TID 0000.0001) // =======================================================
(PID.TID 0000.0001) %MON time_tsnumber                =                  1286
(PID.TID 0000.0001) %MON time_secondsf                =   1.2860000000000E+05
(PID.TID 0000.0001) %MON dynstat_eta_max              =   5.7981809295835E+00
(PID.TID 0000.0001) %MON dynstat_eta_min              =  -1.4188401977566E+01
(PID.TID 0000.0001) %MON dynstat_eta_mean             =  -2.5034403705734E+00
(PID.TID 0000.0001) %MON dynstat_eta_sd               =   4.9498085384603E+00
(PID.TID 0000.0001) %MON dynstat_eta_del2             =   2.0715997469114E-01
(PID.TID 0000.0001) %MON dynstat_uvel_max             =   8.9750057718447E-03
(PID.TID 0000.0001) %MON dynstat_uvel_min             =  -4.1200382581105E-02
(PID.TID 0000.0001) %MON dynstat_uvel_mean            =  -1.0988575453697E-07
(PID.TID 0000.0001) %MON dynstat_uvel_sd              =   1.1891018956309E-03
(PID.TID 0000.0001) %MON dynstat_uvel_del2            =   1.7597932859823E-06
(PID.TID 0000.0001) %MON dynstat_vvel_max             =   2.9523719974720E-02
(PID.TID 0000.0001) %MON dynstat_vvel_min             =  -1.3604758282760E-02
(PID.TID 0000.0001) %MON dynstat_vvel_mean            =   1.4962775080064E-05
(PID.TID 0000.0001) %MON dynstat_vvel_sd              =   6.5793419675235E-04
(PID.TID 0000.0001) %MON dynstat_vvel_del2            =   1.3502550045449E-06
(PID.TID 0000.0001) %MON dynstat_wvel_max             =   1.5685303705994E-03
(PID.TID 0000.0001) %MON dynstat_wvel_min             =  -1.5074339647285E-03
(PID.TID 0000.0001) %MON dynstat_wvel_mean            =   6.8558755160074E-09
(PID.TID 0000.0001) %MON dynstat_wvel_sd              =   2.5286920997222E-05
(PID.TID 0000.0001) %MON dynstat_wvel_del2            =   1.0376593520967E-07
(PID.TID 0000.0001) %MON dynstat_theta_max            =   1.2000000000000E+00
(PID.TID 0000.0001) %MON dynstat_theta_min            =  -1.0000000000000E+00
(PID.TID 0000.0001) %MON dynstat_theta_mean           =   5.6849640997987E-01
(PID.TID 0000.0001) %MON dynstat_theta_sd             =   8.6825623360438E-01
(PID.TID 0000.0001) %MON dynstat_theta_del2           =   4.3181220616683E-06
(PID.TID 0000.0001) %MON dynstat_salt_max             =   3.4700000000000E+01
(PID.TID 0000.0001) %MON dynstat_salt_min             =   3.4000000000000E+01
(PID.TID 0000.0001) %MON dynstat_salt_mean            =   3.4499012688687E+01
(PID.TID 0000.0001) %MON dynstat_salt_sd              =   2.7624185820982E-01
(PID.TID 0000.0001) %MON dynstat_salt_del2            =   1.7087031750285E-06
(PID.TID 0000.0001) %MON advcfl_uvel_max              =   4.1200382581105E-03
(PID.TID 0000.0001) %MON advcfl_vvel_max              =   2.9523719974720E-03
(PID.TID 0000.0001) %MON advcfl_wvel_max              =   7.8426518529968E-03
(PID.TID 0000.0001) %MON advcfl_W_hf_max              =   7.8426518529968E-03
(PID.TID 0000.0001) %MON pe_b_mean                    =  -8.2957241615722E-01
(PID.TID 0000.0001) %MON ke_max                       =   6.6684903119806E-04
(PID.TID 0000.0001) %MON ke_mean                      =   9.0950610475853E-07
(PID.TID 0000.0001) %MON ke_vol                       =   4.2724695983394E+12
(PID.TID 0000.0001) // =======================================================
(PID.TID 0000.0001) // End MONITOR dynamic field statistics
(PID.TID 0000.0001) // =======================================================
(PID.TID 0000.0001) // =======================================================
(PID.TID 0000.0001) // Begin OBCS MONITOR field statistics
(PID.TID 0000.0001) // =======================================================
(PID.TID 0000.0001) %MON obc_N_vVel_max               =   1.4702635499938E-05
(PID.TID 0000.0001) %MON obc_N_vVel_min               =   1.4702635499938E-05
(PID.TID 0000.0001) %MON obc_N_vVel_mean              =   1.4702635499938E-05
(PID.TID 0000.0001) %MON obc_N_vVel_sd                =  -1.1192787663608E-23
(PID.TID 0000.0001) %MON obc_N_vVel_Int               =   9.7037394299592E+02
(PID.TID 0000.0001) // =======================================================
(PID.TID 0000.0001) // End OBCS MONITOR field statistics
(PID.TID 0000.0001) // =======================================================
 cg2d: Sum(rhs),rhsMax =   4.50692142558032E+00  2.99952176159775E+02
(PID.TID 0000.0001)      cg2d_init_res =   8.87234548362620E-06
(PID.TID 0000.0001)      cg2d_iters(min,last) =      -1      83
(PID.TID 0000.0001)      cg2d_last_res =   9.69585878685914E-12
(PID.TID 0000.0001) // =======================================================
(PID.TID 0000.0001) // Begin MONITOR dynamic field statistics
(PID.TID 0000.0001) // =======================================================
(PID.TID 0000.0001) %MON time_tsnumber                =                  1287
(PID.TID 0000.0001) %MON time_secondsf                =   1.2870000000000E+05
(PID.TID 0000.0001) %MON dynstat_eta_max              =   5.7981702351885E+00
(PID.TID 0000.0001) %MON dynstat_eta_min              =  -1.4188431484274E+01
(PID.TID 0000.0001) %MON dynstat_eta_mean             =  -2.5034460914517E+00
(PID.TID 0000.0001) %MON dynstat_eta_sd               =   4.9498108801731E+00
(PID.TID 0000.0001) %MON dynstat_eta_del2             =   2.0716001832745E-01
(PID.TID 0000.0001) %MON dynstat_uvel_max             =   8.9947369317720E-03
(PID.TID 0000.0001) %MON dynstat_uvel_min             =  -4.1298509775095E-02
(PID.TID 0000.0001) %MON dynstat_uvel_mean            =  -1.1003785238824E-07
(PID.TID 0000.0001) %MON dynstat_uvel_sd              =   1.1918158124599E-03
(PID.TID 0000.0001) %MON dynstat_uvel_del2            =   1.7640529285926E-06
(PID.TID 0000.0001) %MON dynstat_vvel_max             =   2.9574516280695E-02
(PID.TID 0000.0001) %MON dynstat_vvel_min             =  -1.3639128099719E-02
(PID.TID 0000.0001) %MON dynstat_vvel_mean            =   1.4956710469202E-05
(PID.TID 0000.0001) %MON dynstat_vvel_sd              =   6.5920269750532E-04
(PID.TID 0000.0001) %MON dynstat_vvel_del2            =   1.3529812790057E-06
(PID.TID 0000.0001) %MON dynstat_wvel_max             =   1.5716359659181E-03
(PID.TID 0000.0001) %MON dynstat_wvel_min             =  -1.5104780843760E-03
(PID.TID 0000.0001) %MON dynstat_wvel_mean            =   6.8741805777074E-09
(PID.TID 0000.0001) %MON dynstat_wvel_sd              =   2.5318501740837E-05
(PID.TID 0000.0001) %MON dynstat_wvel_del2            =   1.0384567169952E-07
(PID.TID 0000.0001) %MON dynstat_theta_max            =   1.2000000000000E+00
(PID.TID 0000.0001) %MON dynstat_theta_min            =  -1.0000000000000E+00
(PID.TID 0000.0001) %MON dynstat_theta_mean           =   5.6849514449579E-01
(PID.TID 0000.0001) %MON dynstat_theta_sd             =   8.6825555554460E-01
(PID.TID 0000.0001) %MON dynstat_theta_del2           =   4.3266784603327E-06
(PID.TID 0000.0001) %MON dynstat_salt_max             =   3.4700000000000E+01
(PID.TID 0000.0001) %MON dynstat_salt_min             =   3.4000000000000E+01
(PID.TID 0000.0001) %MON dynstat_salt_mean            =   3.4499012182129E+01
(PID.TID 0000.0001) %MON dynstat_salt_sd              =   2.7624159760974E-01
(PID.TID 0000.0001) %MON dynstat_salt_del2            =   1.7121112367613E-06
(PID.TID 0000.0001) %MON advcfl_uvel_max              =   4.1298509775095E-03
(PID.TID 0000.0001) %MON advcfl_vvel_max              =   2.9574516280695E-03
(PID.TID 0000.0001) %MON advcfl_wvel_max              =   7.8581798295904E-03
(PID.TID 0000.0001) %MON advcfl_W_hf_max              =   7.8581798295904E-03
(PID.TID 0000.0001) %MON pe_b_mean                    =  -8.2957355014174E-01
(PID.TID 0000.0001) %MON ke_max                       =   6.7031904472987E-04
(PID.TID 0000.0001) %MON ke_mean                      =   9.1350813557474E-07
(PID.TID 0000.0001) %MON ke_vol                       =   4.2724695641988E+12
(PID.TID 0000.0001) // =======================================================
(PID.TID 0000.0001) // End MONITOR dynamic field statistics
(PID.TID 0000.0001) // =======================================================
(PID.TID 0000.0001) // =======================================================
(PID.TID 0000.0001) // Begin OBCS MONITOR field statistics
(PID.TID 0000.0001) // =======================================================
(PID.TID 0000.0001) %MON obc_N_vVel_max               =   1.4695291081070E-05
(PID.TID 0000.0001) %MON obc_N_vVel_min               =   1.4695291081069E-05
(PID.TID 0000.0001) %MON obc_N_vVel_mean              =   1.4695291081069E-05
(PID.TID 0000.0001) %MON obc_N_vVel_sd                =   3.1913416131870E-12
(PID.TID 0000.0001) %MON obc_N_vVel_Int               =   9.6988921135055E+02
(PID.TID 0000.0001) // =======================================================
(PID.TID 0000.0001) // End OBCS MONITOR field statistics
(PID.TID 0000.0001) // =======================================================
 cg2d: Sum(rhs),rhsMax =   4.50693057045431E+00  2.99952250167873E+02
(PID.TID 0000.0001)      cg2d_init_res =   8.88848271701345E-06
(PID.TID 0000.0001)      cg2d_iters(min,last) =      -1      83
(PID.TID 0000.0001)      cg2d_last_res =   9.71770409441451E-12
(PID.TID 0000.0001) // =======================================================
(PID.TID 0000.0001) // Begin MONITOR dynamic field statistics
(PID.TID 0000.0001) // =======================================================
(PID.TID 0000.0001) %MON time_tsnumber                =                  1288
(PID.TID 0000.0001) %MON time_secondsf                =   1.2880000000000E+05
(PID.TID 0000.0001) %MON dynstat_eta_max              =   5.7981595759158E+00
(PID.TID 0000.0001) %MON dynstat_eta_min              =  -1.4188460979371E+01
(PID.TID 0000.0001) %MON dynstat_eta_mean             =  -2.5034517888114E+00
(PID.TID 0000.0001) %MON dynstat_eta_sd               =   4.9498132176337E+00
(PID.TID 0000.0001) %MON dynstat_eta_del2             =   2.0716006203188E-01
(PID.TID 0000.0001) %MON dynstat_uvel_max             =   9.0145010317038E-03
(PID.TID 0000.0001) %MON dynstat_uvel_min             =  -4.1396776062576E-02
(PID.TID 0000.0001) %MON dynstat_uvel_mean            =  -1.1019055522907E-07
(PID.TID 0000.0001) %MON dynstat_uvel_sd              =   1.1945352805630E-03
(PID.TID 0000.0001) %MON dynstat_uvel_del2            =   1.7683231296932E-06
(PID.TID 0000.0001) %MON dynstat_vvel_max             =   2.9625318817053E-02
(PID.TID 0000.0001) %MON dynstat_vvel_min             =  -1.3673573466297E-02
(PID.TID 0000.0001) %MON dynstat_vvel_mean            =   1.4953999625892E-05
(PID.TID 0000.0001) %MON dynstat_vvel_sd              =   6.6047392485710E-04
(PID.TID 0000.0001) %MON dynstat_vvel_del2            =   1.3557156770286E-06
(PID.TID 0000.0001) %MON dynstat_wvel_max             =   1.5747432330168E-03
(PID.TID 0000.0001) %MON dynstat_wvel_min             =  -1.5135246029491E-03
(PID.TID 0000.0001) %MON dynstat_wvel_mean            =   6.8971335024442E-09
(PID.TID 0000.0001) %MON dynstat_wvel_sd              =   2.5351296550820E-05
(PID.TID 0000.0001) %MON dynstat_wvel_del2            =   1.0393040027450E-07
(PID.TID 0000.0001) %MON dynstat_theta_max            =   1.2000000000000E+00
(PID.TID 0000.0001) %MON dynstat_theta_min            =  -1.0000000000000E+00
(PID.TID 0000.0001) %MON dynstat_theta_mean           =   5.6849387683659E-01
(PID.TID 0000.0001) %MON dynstat_theta_sd             =   8.6825487636785E-01
(PID.TID 0000.0001) %MON dynstat_theta_del2           =   4.3352448597300E-06
(PID.TID 0000.0001) %MON dynstat_salt_max             =   3.4700000000000E+01
(PID.TID 0000.0001) %MON dynstat_salt_min             =   3.4000000000000E+01
(PID.TID 0000.0001) %MON dynstat_salt_mean            =   3.4499011674696E+01
(PID.TID 0000.0001) %MON dynstat_salt_sd              =   2.7624133658750E-01
(PID.TID 0000.0001) %MON dynstat_salt_del2            =   1.7155236162567E-06
(PID.TID 0000.0001) %MON advcfl_uvel_max              =   4.1396776062576E-03
(PID.TID 0000.0001) %MON advcfl_vvel_max              =   2.9625318817053E-03
(PID.TID 0000.0001) %MON advcfl_wvel_max              =   7.8737161650840E-03
(PID.TID 0000.0001) %MON advcfl_W_hf_max              =   7.8737161650840E-03
(PID.TID 0000.0001) %MON pe_b_mean                    =  -8.2957467714312E-01
(PID.TID 0000.0001) %MON ke_max                       =   6.7380426487455E-04
(PID.TID 0000.0001) %MON ke_mean                      =   9.1752734511239E-07
(PID.TID 0000.0001) %MON ke_vol                       =   4.2724695302168E+12
(PID.TID 0000.0001) // =======================================================
(PID.TID 0000.0001) // End MONITOR dynamic field statistics
(PID.TID 0000.0001) // =======================================================
(PID.TID 0000.0001) // =======================================================
(PID.TID 0000.0001) // Begin OBCS MONITOR field statistics
(PID.TID 0000.0001) // =======================================================
(PID.TID 0000.0001) %MON obc_N_vVel_max               =   1.4690841256583E-05
(PID.TID 0000.0001) %MON obc_N_vVel_min               =   1.4690841256582E-05
(PID.TID 0000.0001) %MON obc_N_vVel_mean              =   1.4690841256583E-05
(PID.TID 0000.0001) %MON obc_N_vVel_sd                =  -5.4542221640215E-24
(PID.TID 0000.0001) %MON obc_N_vVel_Int               =   9.6959552293447E+02
(PID.TID 0000.0001) // =======================================================
(PID.TID 0000.0001) // End OBCS MONITOR field statistics
(PID.TID 0000.0001) // =======================================================
 cg2d: Sum(rhs),rhsMax =   4.50693967758270E+00  2.99952324259282E+02
(PID.TID 0000.0001)      cg2d_init_res =   8.90600722122892E-06
(PID.TID 0000.0001)      cg2d_iters(min,last) =      -1      83
(PID.TID 0000.0001)      cg2d_last_res =   9.73977816291431E-12
(PID.TID 0000.0001) // =======================================================
(PID.TID 0000.0001) // Begin MONITOR dynamic field statistics
(PID.TID 0000.0001) // =======================================================
(PID.TID 0000.0001) %MON time_tsnumber                =                  1289
(PID.TID 0000.0001) %MON time_secondsf                =   1.2890000000000E+05
(PID.TID 0000.0001) %MON dynstat_eta_max              =   5.7981489456934E+00
(PID.TID 0000.0001) %MON dynstat_eta_min              =  -1.4188490466950E+01
(PID.TID 0000.0001) %MON dynstat_eta_mean             =  -2.5034574659024E+00
(PID.TID 0000.0001) %MON dynstat_eta_sd               =   4.9498155519203E+00
(PID.TID 0000.0001) %MON dynstat_eta_del2             =   2.0716010580503E-01
(PID.TID 0000.0001) %MON dynstat_uvel_max             =   9.0342981028577E-03
(PID.TID 0000.0001) %MON dynstat_uvel_min             =  -4.1495181287055E-02
(PID.TID 0000.0001) %MON dynstat_uvel_mean            =  -1.1034178292716E-07
(PID.TID 0000.0001) %MON dynstat_uvel_sd              =   1.1972603084535E-03
(PID.TID 0000.0001) %MON dynstat_uvel_del2            =   1.7726039096744E-06
(PID.TID 0000.0001) %MON dynstat_vvel_max             =   2.9676127333040E-02
(PID.TID 0000.0001) %MON dynstat_vvel_min             =  -1.3708094522626E-02
(PID.TID 0000.0001) %MON dynstat_vvel_mean            =   1.4954672947429E-05
(PID.TID 0000.0001) %MON dynstat_vvel_sd              =   6.6174799811064E-04
(PID.TID 0000.0001) %MON dynstat_vvel_del2            =   1.3584593445109E-06
(PID.TID 0000.0001) %MON dynstat_wvel_max             =   1.5778521557359E-03
(PID.TID 0000.0001) %MON dynstat_wvel_min             =  -1.5165735082240E-03
(PID.TID 0000.0001) %MON dynstat_wvel_mean            =   6.9243115155682E-09
(PID.TID 0000.0001) %MON dynstat_wvel_sd              =   2.5386237670887E-05
(PID.TID 0000.0001) %MON dynstat_wvel_del2            =   1.0402566374276E-07
(PID.TID 0000.0001) %MON dynstat_theta_max            =   1.2000000000000E+00
(PID.TID 0000.0001) %MON dynstat_theta_min            =  -1.0000000000000E+00
(PID.TID 0000.0001) %MON dynstat_theta_mean           =   5.6849260700107E-01
(PID.TID 0000.0001) %MON dynstat_theta_sd             =   8.6825419606881E-01
(PID.TID 0000.0001) %MON dynstat_theta_del2           =   4.3438195060900E-06
(PID.TID 0000.0001) %MON dynstat_salt_max             =   3.4700000000000E+01
(PID.TID 0000.0001) %MON dynstat_salt_min             =   3.4000000000000E+01
(PID.TID 0000.0001) %MON dynstat_salt_mean            =   3.4499011166388E+01
(PID.TID 0000.0001) %MON dynstat_salt_sd              =   2.7624107514146E-01
(PID.TID 0000.0001) %MON dynstat_salt_del2            =   1.7189398494182E-06
(PID.TID 0000.0001) %MON advcfl_uvel_max              =   4.1495181287055E-03
(PID.TID 0000.0001) %MON advcfl_vvel_max              =   2.9676127333040E-03
(PID.TID 0000.0001) %MON advcfl_wvel_max              =   7.8892607786797E-03
(PID.TID 0000.0001) %MON advcfl_W_hf_max              =   7.8892607786797E-03
(PID.TID 0000.0001) %MON pe_b_mean                    =  -8.2957579800820E-01
(PID.TID 0000.0001) %MON ke_max                       =   6.7730473500918E-04
(PID.TID 0000.0001) %MON ke_mean                      =   9.2156387751329E-07
(PID.TID 0000.0001) %MON ke_vol                       =   4.2724694963745E+12
(PID.TID 0000.0001) // =======================================================
(PID.TID 0000.0001) // End MONITOR dynamic field statistics
(PID.TID 0000.0001) // =======================================================
(PID.TID 0000.0001) // =======================================================
(PID.TID 0000.0001) // Begin OBCS MONITOR field statistics
(PID.TID 0000.0001) // =======================================================
(PID.TID 0000.0001) %MON obc_N_vVel_max               =   1.4689348636258E-05
(PID.TID 0000.0001) %MON obc_N_vVel_min               =   1.4689348636257E-05
(PID.TID 0000.0001) %MON obc_N_vVel_mean              =   1.4689348636258E-05
(PID.TID 0000.0001) %MON obc_N_vVel_sd                =  -1.2278462217584E-23
(PID.TID 0000.0001) %MON obc_N_vVel_Int               =   9.6949700999302E+02
(PID.TID 0000.0001) // =======================================================
(PID.TID 0000.0001) // End OBCS MONITOR field statistics
(PID.TID 0000.0001) // =======================================================
 cg2d: Sum(rhs),rhsMax =   4.50694875235454E+00  2.99952398465996E+02
(PID.TID 0000.0001)      cg2d_init_res =   8.92481188527695E-06
(PID.TID 0000.0001)      cg2d_iters(min,last) =      -1      83
(PID.TID 0000.0001)      cg2d_last_res =   9.76177692188975E-12
(PID.TID 0000.0001) // =======================================================
(PID.TID 0000.0001) // Begin MONITOR dynamic field statistics
(PID.TID 0000.0001) // =======================================================
(PID.TID 0000.0001) %MON time_tsnumber                =                  1290
(PID.TID 0000.0001) %MON time_secondsf                =   1.2900000000000E+05
(PID.TID 0000.0001) %MON dynstat_eta_max              =   5.7981383385430E+00
(PID.TID 0000.0001) %MON dynstat_eta_min              =  -1.4188519951074E+01
(PID.TID 0000.0001) %MON dynstat_eta_mean             =  -2.5034631259853E+00
(PID.TID 0000.0001) %MON dynstat_eta_sd               =   4.9498178840694E+00
(PID.TID 0000.0001) %MON dynstat_eta_del2             =   2.0716014964763E-01
(PID.TID 0000.0001) %MON dynstat_uvel_max             =   9.0541281803169E-03
(PID.TID 0000.0001) %MON dynstat_uvel_min             =  -4.1593725285053E-02
(PID.TID 0000.0001) %MON dynstat_uvel_mean            =  -1.1048968718705E-07
(PID.TID 0000.0001) %MON dynstat_uvel_sd              =   1.1999909046999E-03
(PID.TID 0000.0001) %MON dynstat_uvel_del2            =   1.7768952915189E-06
(PID.TID 0000.0001) %MON dynstat_vvel_max             =   2.9726941565545E-02
(PID.TID 0000.0001) %MON dynstat_vvel_min             =  -1.3742691421388E-02
(PID.TID 0000.0001) %MON dynstat_vvel_mean            =   1.4958700156717E-05
(PID.TID 0000.0001) %MON dynstat_vvel_sd              =   6.6302501184257E-04
(PID.TID 0000.0001) %MON dynstat_vvel_del2            =   1.3612131665300E-06
(PID.TID 0000.0001) %MON dynstat_wvel_max             =   1.5809627178953E-03
(PID.TID 0000.0001) %MON dynstat_wvel_min             =  -1.5196247872356E-03
(PID.TID 0000.0001) %MON dynstat_wvel_mean            =   6.9552185644227E-09
(PID.TID 0000.0001) %MON dynstat_wvel_sd              =   2.5424102282862E-05
(PID.TID 0000.0001) %MON dynstat_wvel_del2            =   1.0413626410759E-07
(PID.TID 0000.0001) %MON dynstat_theta_max            =   1.2000000000000E+00
(PID.TID 0000.0001) %MON dynstat_theta_min            =  -1.0000000000000E+00
(PID.TID 0000.0001) %MON dynstat_theta_mean           =   5.6849133498798E-01
(PID.TID 0000.0001) %MON dynstat_theta_sd             =   8.6825351464146E-01
(PID.TID 0000.0001) %MON dynstat_theta_del2           =   4.3524009162113E-06
(PID.TID 0000.0001) %MON dynstat_salt_max             =   3.4700000000000E+01
(PID.TID 0000.0001) %MON dynstat_salt_min             =   3.4000000000000E+01
(PID.TID 0000.0001) %MON dynstat_salt_mean            =   3.4499010657204E+01
(PID.TID 0000.0001) %MON dynstat_salt_sd              =   2.7624081326969E-01
(PID.TID 0000.0001) %MON dynstat_salt_del2            =   1.7223595312147E-06
(PID.TID 0000.0001) %MON advcfl_uvel_max              =   4.1593725285053E-03
(PID.TID 0000.0001) %MON advcfl_vvel_max              =   2.9726941565545E-03
(PID.TID 0000.0001) %MON advcfl_wvel_max              =   7.9048135894765E-03
(PID.TID 0000.0001) %MON advcfl_W_hf_max              =   7.9048135894765E-03
(PID.TID 0000.0001) %MON pe_b_mean                    =  -8.2957691357176E-01
(PID.TID 0000.0001) %MON ke_max                       =   6.8082049825250E-04
(PID.TID 0000.0001) %MON ke_mean                      =   9.2561786053820E-07
(PID.TID 0000.0001) %MON ke_vol                       =   4.2724694626525E+12
(PID.TID 0000.0001) // =======================================================
(PID.TID 0000.0001) // End MONITOR dynamic field statistics
(PID.TID 0000.0001) // =======================================================
(PID.TID 0000.0001) // =======================================================
(PID.TID 0000.0001) // Begin OBCS MONITOR field statistics
(PID.TID 0000.0001) // =======================================================
(PID.TID 0000.0001) %MON obc_N_vVel_max               =   1.4690822598830E-05
(PID.TID 0000.0001) %MON obc_N_vVel_min               =   1.4690822598829E-05
(PID.TID 0000.0001) %MON obc_N_vVel_mean              =   1.4690822598829E-05
(PID.TID 0000.0001) %MON obc_N_vVel_sd                =   4.7039431741671E-12
(PID.TID 0000.0001) %MON obc_N_vVel_Int               =   9.6959429152272E+02
(PID.TID 0000.0001) // =======================================================
(PID.TID 0000.0001) // End OBCS MONITOR field statistics
(PID.TID 0000.0001) // =======================================================
 cg2d: Sum(rhs),rhsMax =   4.50695780012917E+00  2.99952472816170E+02
(PID.TID 0000.0001)      cg2d_init_res =   8.94477777280397E-06
(PID.TID 0000.0001)      cg2d_iters(min,last) =      -1      83
(PID.TID 0000.0001)      cg2d_last_res =   9.78351366108976E-12
(PID.TID 0000.0001) // =======================================================
(PID.TID 0000.0001) // Begin MONITOR dynamic field statistics
(PID.TID 0000.0001) // =======================================================
(PID.TID 0000.0001) %MON time_tsnumber                =                  1291
(PID.TID 0000.0001) %MON time_secondsf                =   1.2910000000000E+05
(PID.TID 0000.0001) %MON dynstat_eta_max              =   5.7981277486607E+00
(PID.TID 0000.0001) %MON dynstat_eta_min              =  -1.4188549435667E+01
(PID.TID 0000.0001) %MON dynstat_eta_mean             =  -2.5034687722720E+00
(PID.TID 0000.0001) %MON dynstat_eta_sd               =   4.9498202150514E+00
(PID.TID 0000.0001) %MON dynstat_eta_del2             =   2.0716019356023E-01
(PID.TID 0000.0001) %MON dynstat_uvel_max             =   9.0739913038576E-03
(PID.TID 0000.0001) %MON dynstat_uvel_min             =  -4.1692407884828E-02
(PID.TID 0000.0001) %MON dynstat_uvel_mean            =  -1.1063256736266E-07
(PID.TID 0000.0001) %MON dynstat_uvel_sd              =   1.2027270779225E-03
(PID.TID 0000.0001) %MON dynstat_uvel_del2            =   1.7811972990083E-06
(PID.TID 0000.0001) %MON dynstat_vvel_max             =   2.9777761239337E-02
(PID.TID 0000.0001) %MON dynstat_vvel_min             =  -1.3777364327602E-02
(PID.TID 0000.0001) %MON dynstat_vvel_mean            =   1.4965991186365E-05
(PID.TID 0000.0001) %MON dynstat_vvel_sd              =   6.6430502795067E-04
(PID.TID 0000.0001) %MON dynstat_vvel_del2            =   1.3639777016791E-06
(PID.TID 0000.0001) %MON dynstat_wvel_max             =   1.5840749033203E-03
(PID.TID 0000.0001) %MON dynstat_wvel_min             =  -1.5226784264925E-03
(PID.TID 0000.0001) %MON dynstat_wvel_mean            =   6.9892951491008E-09
(PID.TID 0000.0001) %MON dynstat_wvel_sd              =   2.5465459384529E-05
(PID.TID 0000.0001) %MON dynstat_wvel_del2            =   1.0426592678407E-07
(PID.TID 0000.0001) %MON dynstat_theta_max            =   1.2000000000000E+00
(PID.TID 0000.0001) %MON dynstat_theta_min            =  -1.0000000000000E+00
(PID.TID 0000.0001) %MON dynstat_theta_mean           =   5.6849006079600E-01
(PID.TID 0000.0001) %MON dynstat_theta_sd             =   8.6825283208069E-01
(PID.TID 0000.0001) %MON dynstat_theta_del2           =   4.3609880112823E-06
(PID.TID 0000.0001) %MON dynstat_salt_max             =   3.4700000000000E+01
(PID.TID 0000.0001) %MON dynstat_salt_min             =   3.4000000000000E+01
(PID.TID 0000.0001) %MON dynstat_salt_mean            =   3.4499010147143E+01
(PID.TID 0000.0001) %MON dynstat_salt_sd              =   2.7624055097049E-01
(PID.TID 0000.0001) %MON dynstat_salt_del2            =   1.7257823648078E-06
(PID.TID 0000.0001) %MON advcfl_uvel_max              =   4.1692407884828E-03
(PID.TID 0000.0001) %MON advcfl_vvel_max              =   2.9777761239337E-03
(PID.TID 0000.0001) %MON advcfl_wvel_max              =   7.9203745166014E-03
(PID.TID 0000.0001) %MON advcfl_W_hf_max              =   7.9203745166014E-03
(PID.TID 0000.0001) %MON pe_b_mean                    =  -8.2957802464153E-01
(PID.TID 0000.0001) %MON ke_max                       =   6.8435159756256E-04
(PID.TID 0000.0001) %MON ke_mean                      =   9.2968940013744E-07
(PID.TID 0000.0001) %MON ke_vol                       =   4.2724694290316E+12
(PID.TID 0000.0001) // =======================================================
(PID.TID 0000.0001) // End MONITOR dynamic field statistics
(PID.TID 0000.0001) // =======================================================
(PID.TID 0000.0001) // =======================================================
(PID.TID 0000.0001) // Begin OBCS MONITOR field statistics
(PID.TID 0000.0001) // =======================================================
(PID.TID 0000.0001) %MON obc_N_vVel_max               =   1.4695219436406E-05
(PID.TID 0000.0001) %MON obc_N_vVel_min               =   1.4695219436405E-05
(PID.TID 0000.0001) %MON obc_N_vVel_mean              =   1.4695219436405E-05
(PID.TID 0000.0001) %MON obc_N_vVel_sd                =   3.1092882480101E-12
(PID.TID 0000.0001) %MON obc_N_vVel_Int               =   9.6988448280276E+02
(PID.TID 0000.0001) // =======================================================
(PID.TID 0000.0001) // End OBCS MONITOR field statistics
(PID.TID 0000.0001) // =======================================================
 cg2d: Sum(rhs),rhsMax =   4.50696682614029E+00  2.99952547333573E+02
(PID.TID 0000.0001)      cg2d_init_res =   8.96575283493634E-06
(PID.TID 0000.0001)      cg2d_iters(min,last) =      -1      83
(PID.TID 0000.0001)      cg2d_last_res =   9.80476968934053E-12
(PID.TID 0000.0001) // =======================================================
(PID.TID 0000.0001) // Begin MONITOR dynamic field statistics
(PID.TID 0000.0001) // =======================================================
(PID.TID 0000.0001) %MON time_tsnumber                =                  1292
(PID.TID 0000.0001) %MON time_secondsf                =   1.2920000000000E+05
(PID.TID 0000.0001) %MON dynstat_eta_max              =   5.7981171705388E+00
(PID.TID 0000.0001) %MON dynstat_eta_min              =  -1.4188578924496E+01
(PID.TID 0000.0001) %MON dynstat_eta_mean             =  -2.5034744078679E+00
(PID.TID 0000.0001) %MON dynstat_eta_sd               =   4.9498225457557E+00
(PID.TID 0000.0001) %MON dynstat_eta_del2             =   2.0716023754328E-01
(PID.TID 0000.0001) %MON dynstat_uvel_max             =   9.0938875176683E-03
(PID.TID 0000.0001) %MON dynstat_uvel_min             =  -4.1791228908608E-02
(PID.TID 0000.0001) %MON dynstat_uvel_mean            =  -1.1076876747984E-07
(PID.TID 0000.0001) %MON dynstat_uvel_sd              =   1.2054688367891E-03
(PID.TID 0000.0001) %MON dynstat_uvel_del2            =   1.7855099568078E-06
(PID.TID 0000.0001) %MON dynstat_vvel_max             =   2.9828586067172E-02
(PID.TID 0000.0001) %MON dynstat_vvel_min             =  -1.3812113417796E-02
(PID.TID 0000.0001) %MON dynstat_vvel_mean            =   1.4976398140257E-05
(PID.TID 0000.0001) %MON dynstat_vvel_sd              =   6.6558807022555E-04
(PID.TID 0000.0001) %MON dynstat_vvel_del2            =   1.3667531401794E-06
(PID.TID 0000.0001) %MON dynstat_wvel_max             =   1.5871886958278E-03
(PID.TID 0000.0001) %MON dynstat_wvel_min             =  -1.5257344119106E-03
(PID.TID 0000.0001) %MON dynstat_wvel_mean            =   7.0259283718418E-09
(PID.TID 0000.0001) %MON dynstat_wvel_sd              =   2.5510632022607E-05
(PID.TID 0000.0001) %MON dynstat_wvel_del2            =   1.0441704106431E-07
(PID.TID 0000.0001) %MON dynstat_theta_max            =   1.2000000000000E+00
(PID.TID 0000.0001) %MON dynstat_theta_min            =  -1.0000000000000E+00
(PID.TID 0000.0001) %MON dynstat_theta_mean           =   5.6848878442373E-01
(PID.TID 0000.0001) %MON dynstat_theta_sd             =   8.6825214838035E-01
(PID.TID 0000.0001) %MON dynstat_theta_del2           =   4.3695802002918E-06
(PID.TID 0000.0001) %MON dynstat_salt_max             =   3.4700000000000E+01
(PID.TID 0000.0001) %MON dynstat_salt_min             =   3.4000000000000E+01
(PID.TID 0000.0001) %MON dynstat_salt_mean            =   3.4499009636204E+01
(PID.TID 0000.0001) %MON dynstat_salt_sd              =   2.7624028824202E-01
(PID.TID 0000.0001) %MON dynstat_salt_del2            =   1.7292081828844E-06
(PID.TID 0000.0001) %MON advcfl_uvel_max              =   4.1791228908608E-03
(PID.TID 0000.0001) %MON advcfl_vvel_max              =   2.9828586067172E-03
(PID.TID 0000.0001) %MON advcfl_wvel_max              =   7.9359434791390E-03
(PID.TID 0000.0001) %MON advcfl_W_hf_max              =   7.9359434791390E-03
(PID.TID 0000.0001) %MON pe_b_mean                    =  -8.2957913198368E-01
(PID.TID 0000.0001) %MON ke_max                       =   6.8789807570102E-04
(PID.TID 0000.0001) %MON ke_mean                      =   9.3377857665352E-07
(PID.TID 0000.0001) %MON ke_vol                       =   4.2724693954927E+12
(PID.TID 0000.0001) // =======================================================
(PID.TID 0000.0001) // End MONITOR dynamic field statistics
(PID.TID 0000.0001) // =======================================================
(PID.TID 0000.0001) // =======================================================
(PID.TID 0000.0001) // Begin OBCS MONITOR field statistics
(PID.TID 0000.0001) // =======================================================
(PID.TID 0000.0001) %MON obc_N_vVel_max               =   1.4702443437076E-05
(PID.TID 0000.0001) %MON obc_N_vVel_min               =   1.4702443437075E-05
(PID.TID 0000.0001) %MON obc_N_vVel_mean              =   1.4702443437076E-05
(PID.TID 0000.0001) %MON obc_N_vVel_sd                =  -2.1196503196671E-23
(PID.TID 0000.0001) %MON obc_N_vVel_Int               =   9.7036126684699E+02
(PID.TID 0000.0001) // =======================================================
(PID.TID 0000.0001) // End OBCS MONITOR field statistics
(PID.TID 0000.0001) // =======================================================
 cg2d: Sum(rhs),rhsMax =   4.50697583540273E+00  2.99952622037155E+02
(PID.TID 0000.0001)      cg2d_init_res =   8.98755948668329E-06
(PID.TID 0000.0001)      cg2d_iters(min,last) =      -1      83
(PID.TID 0000.0001)      cg2d_last_res =   9.82533492461069E-12
(PID.TID 0000.0001) // =======================================================
(PID.TID 0000.0001) // Begin MONITOR dynamic field statistics
(PID.TID 0000.0001) // =======================================================
(PID.TID 0000.0001) %MON time_tsnumber                =                  1293
(PID.TID 0000.0001) %MON time_secondsf                =   1.2930000000000E+05
(PID.TID 0000.0001) %MON dynstat_eta_max              =   5.7981065990503E+00
(PID.TID 0000.0001) %MON dynstat_eta_min              =  -1.4188608421071E+01
(PID.TID 0000.0001) %MON dynstat_eta_mean             =  -2.5034800357169E+00
(PID.TID 0000.0001) %MON dynstat_eta_sd               =   4.9498248769748E+00
(PID.TID 0000.0001) %MON dynstat_eta_del2             =   2.0716028159714E-01
(PID.TID 0000.0001) %MON dynstat_uvel_max             =   9.1138168697888E-03
(PID.TID 0000.0001) %MON dynstat_uvel_min             =  -4.1890188172038E-02
(PID.TID 0000.0001) %MON dynstat_uvel_mean            =  -1.1089660427159E-07
(PID.TID 0000.0001) %MON dynstat_uvel_sd              =   1.2082161900039E-03
(PID.TID 0000.0001) %MON dynstat_uvel_del2            =   1.7898332904594E-06
(PID.TID 0000.0001) %MON dynstat_vvel_max             =   2.9879415750336E-02
(PID.TID 0000.0001) %MON dynstat_vvel_min             =  -1.3846938879722E-02
(PID.TID 0000.0001) %MON dynstat_vvel_mean            =   1.4989718280328E-05
(PID.TID 0000.0001) %MON dynstat_vvel_sd              =   6.6687412161684E-04
(PID.TID 0000.0001) %MON dynstat_vvel_del2            =   1.3695392873694E-06
(PID.TID 0000.0001) %MON dynstat_wvel_max             =   1.5903040792180E-03
(PID.TID 0000.0001) %MON dynstat_wvel_min             =  -1.5287927288740E-03
(PID.TID 0000.0001) %MON dynstat_wvel_mean            =   7.0644632275493E-09
(PID.TID 0000.0001) %MON dynstat_wvel_sd              =   2.5559677532976E-05
(PID.TID 0000.0001) %MON dynstat_wvel_del2            =   1.0459049510173E-07
(PID.TID 0000.0001) %MON dynstat_theta_max            =   1.2000000000000E+00
(PID.TID 0000.0001) %MON dynstat_theta_min            =  -1.0000000000000E+00
(PID.TID 0000.0001) %MON dynstat_theta_mean           =   5.6848750586967E-01
(PID.TID 0000.0001) %MON dynstat_theta_sd             =   8.6825146353444E-01
(PID.TID 0000.0001) %MON dynstat_theta_del2           =   4.3781773959099E-06
(PID.TID 0000.0001) %MON dynstat_salt_max             =   3.4700000000000E+01
(PID.TID 0000.0001) %MON dynstat_salt_min             =   3.4000000000000E+01
(PID.TID 0000.0001) %MON dynstat_salt_mean            =   3.4499009124386E+01
(PID.TID 0000.0001) %MON dynstat_salt_sd              =   2.7624002508219E-01
(PID.TID 0000.0001) %MON dynstat_salt_del2            =   1.7326369520444E-06
(PID.TID 0000.0001) %MON advcfl_uvel_max              =   4.1890188172038E-03
(PID.TID 0000.0001) %MON advcfl_vvel_max              =   2.9879415750336E-03
(PID.TID 0000.0001) %MON advcfl_wvel_max              =   7.9515203960898E-03
(PID.TID 0000.0001) %MON advcfl_W_hf_max              =   7.9515203960898E-03
(PID.TID 0000.0001) %MON pe_b_mean                    =  -8.2958023630916E-01
(PID.TID 0000.0001) %MON ke_max                       =   6.9145997521013E-04
(PID.TID 0000.0001) %MON ke_mean                      =   9.3788544277975E-07
(PID.TID 0000.0001) %MON ke_vol                       =   4.2724693620173E+12
(PID.TID 0000.0001) // =======================================================
(PID.TID 0000.0001) // End MONITOR dynamic field statistics
(PID.TID 0000.0001) // =======================================================
(PID.TID 0000.0001) // =======================================================
(PID.TID 0000.0001) // Begin OBCS MONITOR field statistics
(PID.TID 0000.0001) // =======================================================
(PID.TID 0000.0001) %MON obc_N_vVel_max               =   1.4712348919436E-05
(PID.TID 0000.0001) %MON obc_N_vVel_min               =   1.4712348919435E-05
(PID.TID 0000.0001) %MON obc_N_vVel_mean              =   1.4712348919435E-05
(PID.TID 0000.0001) %MON obc_N_vVel_sd                =   3.5589609620953E-12
(PID.TID 0000.0001) %MON obc_N_vVel_Int               =   9.7101502868271E+02
(PID.TID 0000.0001) // =======================================================
(PID.TID 0000.0001) // End OBCS MONITOR field statistics
(PID.TID 0000.0001) // =======================================================
 cg2d: Sum(rhs),rhsMax =   4.50698483262160E+00  2.99952696940686E+02
(PID.TID 0000.0001)      cg2d_init_res =   9.00999265282704E-06
(PID.TID 0000.0001)      cg2d_iters(min,last) =      -1      83
(PID.TID 0000.0001)      cg2d_last_res =   9.84500060982315E-12
(PID.TID 0000.0001) // =======================================================
(PID.TID 0000.0001) // Begin MONITOR dynamic field statistics
(PID.TID 0000.0001) // =======================================================
(PID.TID 0000.0001) %MON time_tsnumber                =                  1294
(PID.TID 0000.0001) %MON time_secondsf                =   1.2940000000000E+05
(PID.TID 0000.0001) %MON dynstat_eta_max              =   5.7980960295422E+00
(PID.TID 0000.0001) %MON dynstat_eta_min              =  -1.4188637928623E+01
(PID.TID 0000.0001) %MON dynstat_eta_mean             =  -2.5034856585474E+00
(PID.TID 0000.0001) %MON dynstat_eta_sd               =   4.9498272093881E+00
(PID.TID 0000.0001) %MON dynstat_eta_del2             =   2.0716032572195E-01
(PID.TID 0000.0001) %MON dynstat_uvel_max             =   9.1337794115738E-03
(PID.TID 0000.0001) %MON dynstat_uvel_min             =  -4.1989285484530E-02
(PID.TID 0000.0001) %MON dynstat_uvel_mean            =  -1.1101432155271E-07
(PID.TID 0000.0001) %MON dynstat_uvel_sd              =   1.2109691462921E-03
(PID.TID 0000.0001) %MON dynstat_uvel_del2            =   1.7941673262304E-06
(PID.TID 0000.0001) %MON dynstat_vvel_max             =   2.9930249979365E-02
(PID.TID 0000.0001) %MON dynstat_vvel_min             =  -1.3881840910905E-02
(PID.TID 0000.0001) %MON dynstat_vvel_mean            =   1.5005697982457E-05
(PID.TID 0000.0001) %MON dynstat_vvel_sd              =   6.6816312436503E-04
(PID.TID 0000.0001) %MON dynstat_vvel_del2            =   1.3723355742254E-06
(PID.TID 0000.0001) %MON dynstat_wvel_max             =   1.5934210373011E-03
(PID.TID 0000.0001) %MON dynstat_wvel_min             =  -1.5318533622778E-03
(PID.TID 0000.0001) %MON dynstat_wvel_mean            =   7.1042146809961E-09
(PID.TID 0000.0001) %MON dynstat_wvel_sd              =   2.5612387158410E-05
(PID.TID 0000.0001) %MON dynstat_wvel_del2            =   1.0478561951468E-07
(PID.TID 0000.0001) %MON dynstat_theta_max            =   1.2000000000000E+00
(PID.TID 0000.0001) %MON dynstat_theta_min            =  -1.0000000000000E+00
(PID.TID 0000.0001) %MON dynstat_theta_mean           =   5.6848622513204E-01
(PID.TID 0000.0001) %MON dynstat_theta_sd             =   8.6825077753695E-01
(PID.TID 0000.0001) %MON dynstat_theta_del2           =   4.3867799983128E-06
(PID.TID 0000.0001) %MON dynstat_salt_max             =   3.4700000000000E+01
(PID.TID 0000.0001) %MON dynstat_salt_min             =   3.4000000000000E+01
(PID.TID 0000.0001) %MON dynstat_salt_mean            =   3.4499008611689E+01
(PID.TID 0000.0001) %MON dynstat_salt_sd              =   2.7623976148906E-01
(PID.TID 0000.0001) %MON dynstat_salt_del2            =   1.7360686961970E-06
(PID.TID 0000.0001) %MON advcfl_uvel_max              =   4.1989285484530E-03
(PID.TID 0000.0001) %MON advcfl_vvel_max              =   2.9930249979365E-03
(PID.TID 0000.0001) %MON advcfl_wvel_max              =   7.9671051865055E-03
(PID.TID 0000.0001) %MON advcfl_W_hf_max              =   7.9671051865055E-03
(PID.TID 0000.0001) %MON pe_b_mean                    =  -8.2958133826067E-01
(PID.TID 0000.0001) %MON ke_max                       =   6.9503733842729E-04
(PID.TID 0000.0001) %MON ke_mean                      =   9.4201002341930E-07
(PID.TID 0000.0001) %MON ke_vol                       =   4.2724693285878E+12
(PID.TID 0000.0001) // =======================================================
(PID.TID 0000.0001) // End MONITOR dynamic field statistics
(PID.TID 0000.0001) // =======================================================
(PID.TID 0000.0001) // =======================================================
(PID.TID 0000.0001) // Begin OBCS MONITOR field statistics
(PID.TID 0000.0001) // =======================================================
(PID.TID 0000.0001) %MON obc_N_vVel_max               =   1.4724743133960E-05
(PID.TID 0000.0001) %MON obc_N_vVel_min               =   1.4724743133960E-05
(PID.TID 0000.0001) %MON obc_N_vVel_mean              =   1.4724743133960E-05
(PID.TID 0000.0001) %MON obc_N_vVel_sd                =   2.7801023090063E-12
(PID.TID 0000.0001) %MON obc_N_vVel_Int               =   9.7183304684133E+02
(PID.TID 0000.0001) // =======================================================
(PID.TID 0000.0001) // End OBCS MONITOR field statistics
(PID.TID 0000.0001) // =======================================================
 cg2d: Sum(rhs),rhsMax =   4.50699382211277E+00  2.99952772052537E+02
(PID.TID 0000.0001)      cg2d_init_res =   9.03284436174245E-06
(PID.TID 0000.0001)      cg2d_iters(min,last) =      -1      83
(PID.TID 0000.0001)      cg2d_last_res =   9.86360143296853E-12
(PID.TID 0000.0001) // =======================================================
(PID.TID 0000.0001) // Begin MONITOR dynamic field statistics
(PID.TID 0000.0001) // =======================================================
(PID.TID 0000.0001) %MON time_tsnumber                =                  1295
(PID.TID 0000.0001) %MON time_secondsf                =   1.2950000000000E+05
(PID.TID 0000.0001) %MON dynstat_eta_max              =   5.7980854579118E+00
(PID.TID 0000.0001) %MON dynstat_eta_min              =  -1.4188667450022E+01
(PID.TID 0000.0001) %MON dynstat_eta_mean             =  -2.5034912788266E+00
(PID.TID 0000.0001) %MON dynstat_eta_sd               =   4.9498295435577E+00
(PID.TID 0000.0001) %MON dynstat_eta_del2             =   2.0716036991799E-01
(PID.TID 0000.0001) %MON dynstat_uvel_max             =   9.1537751972730E-03
(PID.TID 0000.0001) %MON dynstat_uvel_min             =  -4.2088520649672E-02
(PID.TID 0000.0001) %MON dynstat_uvel_mean            =  -1.1112007756826E-07
(PID.TID 0000.0001) %MON dynstat_uvel_sd              =   1.2137277143131E-03
(PID.TID 0000.0001) %MON dynstat_uvel_del2            =   1.7985120901379E-06
(PID.TID 0000.0001) %MON dynstat_vvel_max             =   2.9981088434921E-02
(PID.TID 0000.0001) %MON dynstat_vvel_min             =  -1.3916819717819E-02
(PID.TID 0000.0001) %MON dynstat_vvel_mean            =   1.5024037587102E-05
(PID.TID 0000.0001) %MON dynstat_vvel_sd              =   6.6945498305474E-04
(PID.TID 0000.0001) %MON dynstat_vvel_del2            =   1.3751410971971E-06
(PID.TID 0000.0001) %MON dynstat_wvel_max             =   1.5965395538805E-03
(PID.TID 0000.0001) %MON dynstat_wvel_min             =  -1.5349162965685E-03
(PID.TID 0000.0001) %MON dynstat_wvel_mean            =   7.1444799587921E-09
(PID.TID 0000.0001) %MON dynstat_wvel_sd              =   2.5668304845333E-05
(PID.TID 0000.0001) %MON dynstat_wvel_del2            =   1.0500024432669E-07
(PID.TID 0000.0001) %MON dynstat_theta_max            =   1.2000000000000E+00
(PID.TID 0000.0001) %MON dynstat_theta_min            =  -1.0000000000000E+00
(PID.TID 0000.0001) %MON dynstat_theta_mean           =   5.6848494220901E-01
(PID.TID 0000.0001) %MON dynstat_theta_sd             =   8.6825009038182E-01
(PID.TID 0000.0001) %MON dynstat_theta_del2           =   4.3953876946686E-06
(PID.TID 0000.0001) %MON dynstat_salt_max             =   3.4700000000000E+01
(PID.TID 0000.0001) %MON dynstat_salt_min             =   3.4000000000000E+01
(PID.TID 0000.0001) %MON dynstat_salt_mean            =   3.4499008098111E+01
(PID.TID 0000.0001) %MON dynstat_salt_sd              =   2.7623949746065E-01
(PID.TID 0000.0001) %MON dynstat_salt_del2            =   1.7395036577740E-06
(PID.TID 0000.0001) %MON advcfl_uvel_max              =   4.2088520649672E-03
(PID.TID 0000.0001) %MON advcfl_vvel_max              =   2.9981088434921E-03
(PID.TID 0000.0001) %MON advcfl_wvel_max              =   7.9826977694027E-03
(PID.TID 0000.0001) %MON advcfl_W_hf_max              =   7.9826977694027E-03
(PID.TID 0000.0001) %MON pe_b_mean                    =  -8.2958243840216E-01
(PID.TID 0000.0001) %MON ke_max                       =   6.9863020750775E-04
(PID.TID 0000.0001) %MON ke_mean                      =   9.4615231742524E-07
(PID.TID 0000.0001) %MON ke_vol                       =   4.2724692951882E+12
(PID.TID 0000.0001) // =======================================================
(PID.TID 0000.0001) // End MONITOR dynamic field statistics
(PID.TID 0000.0001) // =======================================================
(PID.TID 0000.0001) // =======================================================
(PID.TID 0000.0001) // Begin OBCS MONITOR field statistics
(PID.TID 0000.0001) // =======================================================
(PID.TID 0000.0001) %MON obc_N_vVel_max               =   1.4739390009188E-05
(PID.TID 0000.0001) %MON obc_N_vVel_min               =   1.4739390009188E-05
(PID.TID 0000.0001) %MON obc_N_vVel_mean              =   1.4739390009188E-05
(PID.TID 0000.0001) %MON obc_N_vVel_sd                =  -8.8921915849450E-24
(PID.TID 0000.0001) %MON obc_N_vVel_Int               =   9.7279974060644E+02
(PID.TID 0000.0001) // =======================================================
(PID.TID 0000.0001) // End OBCS MONITOR field statistics
(PID.TID 0000.0001) // =======================================================
 cg2d: Sum(rhs),rhsMax =   4.50700280772541E+00  2.99952847375587E+02
(PID.TID 0000.0001)      cg2d_init_res =   9.05586227967685E-06
(PID.TID 0000.0001)      cg2d_iters(min,last) =      -1      83
(PID.TID 0000.0001)      cg2d_last_res =   9.88089882884988E-12
(PID.TID 0000.0001) // =======================================================
(PID.TID 0000.0001) // Begin MONITOR dynamic field statistics
(PID.TID 0000.0001) // =======================================================
(PID.TID 0000.0001) %MON time_tsnumber                =                  1296
(PID.TID 0000.0001) %MON time_secondsf                =   1.2960000000000E+05
(PID.TID 0000.0001) %MON dynstat_eta_max              =   5.7980748806811E+00
(PID.TID 0000.0001) %MON dynstat_eta_min              =  -1.4188696987750E+01
(PID.TID 0000.0001) %MON dynstat_eta_mean             =  -2.5034968987167E+00
(PID.TID 0000.0001) %MON dynstat_eta_sd               =   4.9498318799100E+00
(PID.TID 0000.0001) %MON dynstat_eta_del2             =   2.0716041418516E-01
(PID.TID 0000.0001) %MON dynstat_uvel_max             =   9.1738042837584E-03
(PID.TID 0000.0001) %MON dynstat_uvel_min             =  -4.2187893513471E-02
(PID.TID 0000.0001) %MON dynstat_uvel_mean            =  -1.1121196906425E-07
(PID.TID 0000.0001) %MON dynstat_uvel_sd              =   1.2164919027615E-03
(PID.TID 0000.0001) %MON dynstat_uvel_del2            =   1.8028676080514E-06
(PID.TID 0000.0001) %MON dynstat_vvel_max             =   3.0031930789156E-02
(PID.TID 0000.0001) %MON dynstat_vvel_min             =  -1.3951875514449E-02
(PID.TID 0000.0001) %MON dynstat_vvel_mean            =   1.5044397055561E-05
(PID.TID 0000.0001) %MON dynstat_vvel_sd              =   6.7074957005963E-04
(PID.TID 0000.0001) %MON dynstat_vvel_del2            =   1.3779546760752E-06
(PID.TID 0000.0001) %MON dynstat_wvel_max             =   1.5996596127503E-03
(PID.TID 0000.0001) %MON dynstat_wvel_min             =  -1.5379815158410E-03
(PID.TID 0000.0001) %MON dynstat_wvel_mean            =   7.1845516330369E-09
(PID.TID 0000.0001) %MON dynstat_wvel_sd              =   2.5726763647360E-05
(PID.TID 0000.0001) %MON dynstat_wvel_del2            =   1.0523086697084E-07
(PID.TID 0000.0001) %MON dynstat_theta_max            =   1.2000000000000E+00
(PID.TID 0000.0001) %MON dynstat_theta_min            =  -1.0000000000000E+00
(PID.TID 0000.0001) %MON dynstat_theta_mean           =   5.6848365709861E-01
(PID.TID 0000.0001) %MON dynstat_theta_sd             =   8.6824940206485E-01
(PID.TID 0000.0001) %MON dynstat_theta_del2           =   4.4039997042727E-06
(PID.TID 0000.0001) %MON dynstat_salt_max             =   3.4700000000000E+01
(PID.TID 0000.0001) %MON dynstat_salt_min             =   3.4000000000000E+01
(PID.TID 0000.0001) %MON dynstat_salt_mean            =   3.4499007583652E+01
(PID.TID 0000.0001) %MON dynstat_salt_sd              =   2.7623923299584E-01
(PID.TID 0000.0001) %MON dynstat_salt_del2            =   1.7429400498624E-06
(PID.TID 0000.0001) %MON advcfl_uvel_max              =   4.2187893513471E-03
(PID.TID 0000.0001) %MON advcfl_vvel_max              =   3.0031930789156E-03
(PID.TID 0000.0001) %MON advcfl_wvel_max              =   7.9982980637514E-03
(PID.TID 0000.0001) %MON advcfl_W_hf_max              =   7.9982980637514E-03
(PID.TID 0000.0001) %MON pe_b_mean                    =  -8.2958353720878E-01
(PID.TID 0000.0001) %MON ke_max                       =   7.0223862403774E-04
(PID.TID 0000.0001) %MON ke_mean                      =   9.5031230120031E-07
(PID.TID 0000.0001) %MON ke_vol                       =   4.2724692618038E+12
(PID.TID 0000.0001) // =======================================================
(PID.TID 0000.0001) // End MONITOR dynamic field statistics
(PID.TID 0000.0001) // =======================================================
(PID.TID 0000.0001) // =======================================================
(PID.TID 0000.0001) // Begin OBCS MONITOR field statistics
(PID.TID 0000.0001) // =======================================================
(PID.TID 0000.0001) %MON obc_N_vVel_max               =   1.4756014661418E-05
(PID.TID 0000.0001) %MON obc_N_vVel_min               =   1.4756014661418E-05
(PID.TID 0000.0001) %MON obc_N_vVel_mean              =   1.4756014661418E-05
(PID.TID 0000.0001) %MON obc_N_vVel_sd                =  -3.8515597272000E-24
(PID.TID 0000.0001) %MON obc_N_vVel_Int               =   9.7389696765360E+02
(PID.TID 0000.0001) // =======================================================
(PID.TID 0000.0001) // End OBCS MONITOR field statistics
(PID.TID 0000.0001) // =======================================================
 cg2d: Sum(rhs),rhsMax =   4.50701179277449E+00  2.99952922907207E+02
(PID.TID 0000.0001)      cg2d_init_res =   9.07868837964790E-06
(PID.TID 0000.0001)      cg2d_iters(min,last) =      -1      83
(PID.TID 0000.0001)      cg2d_last_res =   9.89720089416532E-12
(PID.TID 0000.0001) // =======================================================
(PID.TID 0000.0001) // Begin MONITOR dynamic field statistics
(PID.TID 0000.0001) // =======================================================
(PID.TID 0000.0001) %MON time_tsnumber                =                  1297
(PID.TID 0000.0001) %MON time_secondsf                =   1.2970000000000E+05
(PID.TID 0000.0001) %MON dynstat_eta_max              =   5.7980642950572E+00
(PID.TID 0000.0001) %MON dynstat_eta_min              =  -1.4188726543873E+01
(PID.TID 0000.0001) %MON dynstat_eta_mean             =  -2.5035025200370E+00
(PID.TID 0000.0001) %MON dynstat_eta_sd               =   4.9498342187450E+00
(PID.TID 0000.0001) %MON dynstat_eta_del2             =   2.0716045852405E-01
(PID.TID 0000.0001) %MON dynstat_uvel_max             =   9.1938667295111E-03
(PID.TID 0000.0001) %MON dynstat_uvel_min             =  -4.2287404038187E-02
(PID.TID 0000.0001) %MON dynstat_uvel_mean            =  -1.1128807235700E-07
(PID.TID 0000.0001) %MON dynstat_uvel_sd              =   1.2192617199411E-03
(PID.TID 0000.0001) %MON dynstat_uvel_del2            =   1.8072338883555E-06
(PID.TID 0000.0001) %MON dynstat_vvel_max             =   3.0082776706796E-02
(PID.TID 0000.0001) %MON dynstat_vvel_min             =  -1.3987008521182E-02
(PID.TID 0000.0001) %MON dynstat_vvel_mean            =   1.5066402349534E-05
(PID.TID 0000.0001) %MON dynstat_vvel_sd              =   6.7204673328029E-04
(PID.TID 0000.0001) %MON dynstat_vvel_del2            =   1.3807749253467E-06
(PID.TID 0000.0001) %MON dynstat_wvel_max             =   1.6027811976819E-03
(PID.TID 0000.0001) %MON dynstat_wvel_min             =  -1.5410490037926E-03
(PID.TID 0000.0001) %MON dynstat_wvel_mean            =   7.2237296709993E-09
(PID.TID 0000.0001) %MON dynstat_wvel_sd              =   2.5786936663961E-05
(PID.TID 0000.0001) %MON dynstat_wvel_del2            =   1.0547291590894E-07
(PID.TID 0000.0001) %MON dynstat_theta_max            =   1.2000000000000E+00
(PID.TID 0000.0001) %MON dynstat_theta_min            =  -1.0000000000000E+00
(PID.TID 0000.0001) %MON dynstat_theta_mean           =   5.6848236979867E-01
(PID.TID 0000.0001) %MON dynstat_theta_sd             =   8.6824871258139E-01
(PID.TID 0000.0001) %MON dynstat_theta_del2           =   4.4126106863139E-06
(PID.TID 0000.0001) %MON dynstat_salt_max             =   3.4700000000000E+01
(PID.TID 0000.0001) %MON dynstat_salt_min             =   3.4000000000000E+01
(PID.TID 0000.0001) %MON dynstat_salt_mean            =   3.4499007068310E+01
(PID.TID 0000.0001) %MON dynstat_salt_sd              =   2.7623896809263E-01
(PID.TID 0000.0001) %MON dynstat_salt_del2            =   1.7463762828502E-06
(PID.TID 0000.0001) %MON advcfl_uvel_max              =   4.2287404038187E-03
(PID.TID 0000.0001) %MON advcfl_vvel_max              =   3.0082776706796E-03
(PID.TID 0000.0001) %MON advcfl_wvel_max              =   8.0139059884093E-03
(PID.TID 0000.0001) %MON advcfl_W_hf_max              =   8.0139059884093E-03
(PID.TID 0000.0001) %MON pe_b_mean                    =  -8.2958463505861E-01
(PID.TID 0000.0001) %MON ke_max                       =   7.0586262861284E-04
(PID.TID 0000.0001) %MON ke_mean                      =   9.5448993326093E-07
(PID.TID 0000.0001) %MON ke_vol                       =   4.2724692284216E+12
(PID.TID 0000.0001) // =======================================================
(PID.TID 0000.0001) // End MONITOR dynamic field statistics
(PID.TID 0000.0001) // =======================================================
(PID.TID 0000.0001) // =======================================================
(PID.TID 0000.0001) // Begin OBCS MONITOR field statistics
(PID.TID 0000.0001) // =======================================================
(PID.TID 0000.0001) %MON obc_N_vVel_max               =   1.4774308530386E-05
(PID.TID 0000.0001) %MON obc_N_vVel_min               =   1.4774308530386E-05
(PID.TID 0000.0001) %MON obc_N_vVel_mean              =   1.4774308530386E-05
(PID.TID 0000.0001) %MON obc_N_vVel_sd                =   1.7241462601422E-12
(PID.TID 0000.0001) %MON obc_N_vVel_Int               =   9.7510436300547E+02
(PID.TID 0000.0001) // =======================================================
(PID.TID 0000.0001) // End OBCS MONITOR field statistics
(PID.TID 0000.0001) // =======================================================
 cg2d: Sum(rhs),rhsMax =   4.50702077998478E+00  2.99952998639278E+02
(PID.TID 0000.0001)      cg2d_init_res =   9.10077133324652E-06
(PID.TID 0000.0001)      cg2d_iters(min,last) =      -1      83
(PID.TID 0000.0001)      cg2d_last_res =   9.91101049773679E-12
(PID.TID 0000.0001) // =======================================================
(PID.TID 0000.0001) // Begin MONITOR dynamic field statistics
(PID.TID 0000.0001) // =======================================================
(PID.TID 0000.0001) %MON time_tsnumber                =                  1298
(PID.TID 0000.0001) %MON time_secondsf                =   1.2980000000000E+05
(PID.TID 0000.0001) %MON dynstat_eta_max              =   5.7980536989718E+00
(PID.TID 0000.0001) %MON dynstat_eta_min              =  -1.4188756120002E+01
(PID.TID 0000.0001) %MON dynstat_eta_mean             =  -2.5035081442333E+00
(PID.TID 0000.0001) %MON dynstat_eta_sd               =   4.9498365601838E+00
(PID.TID 0000.0001) %MON dynstat_eta_del2             =   2.0716050293247E-01
(PID.TID 0000.0001) %MON dynstat_uvel_max             =   9.2139625958829E-03
(PID.TID 0000.0001) %MON dynstat_uvel_min             =  -4.2387052155166E-02
(PID.TID 0000.0001) %MON dynstat_uvel_mean            =  -1.1134662788723E-07
(PID.TID 0000.0001) %MON dynstat_uvel_sd              =   1.2220371749820E-03
(PID.TID 0000.0001) %MON dynstat_uvel_del2            =   1.8116108917043E-06
(PID.TID 0000.0001) %MON dynstat_vvel_max             =   3.0133625846569E-02
(PID.TID 0000.0001) %MON dynstat_vvel_min             =  -1.4022218960605E-02
(PID.TID 0000.0001) %MON dynstat_vvel_mean            =   1.5089652444152E-05
(PID.TID 0000.0001) %MON dynstat_vvel_sd              =   6.7334630720069E-04
(PID.TID 0000.0001) %MON dynstat_vvel_del2            =   1.3836003872674E-06
(PID.TID 0000.0001) %MON dynstat_wvel_max             =   1.6059042924290E-03
(PID.TID 0000.0001) %MON dynstat_wvel_min             =  -1.5441187438294E-03
(PID.TID 0000.0001) %MON dynstat_wvel_mean            =   7.2613396066889E-09
(PID.TID 0000.0001) %MON dynstat_wvel_sd              =   2.5847898973136E-05
(PID.TID 0000.0001) %MON dynstat_wvel_del2            =   1.0572110271721E-07
(PID.TID 0000.0001) %MON dynstat_theta_max            =   1.2000000000000E+00
(PID.TID 0000.0001) %MON dynstat_theta_min            =  -1.0000000000000E+00
(PID.TID 0000.0001) %MON dynstat_theta_mean           =   5.6848108030681E-01
(PID.TID 0000.0001) %MON dynstat_theta_sd             =   8.6824802193250E-01
(PID.TID 0000.0001) %MON dynstat_theta_del2           =   4.4212311892221E-06
(PID.TID 0000.0001) %MON dynstat_salt_max             =   3.4700000000000E+01
(PID.TID 0000.0001) %MON dynstat_salt_min             =   3.4000000000000E+01
(PID.TID 0000.0001) %MON dynstat_salt_mean            =   3.4499006552085E+01
(PID.TID 0000.0001) %MON dynstat_salt_sd              =   2.7623870275195E-01
(PID.TID 0000.0001) %MON dynstat_salt_del2            =   1.7498170437249E-06
(PID.TID 0000.0001) %MON advcfl_uvel_max              =   4.2387052155166E-03
(PID.TID 0000.0001) %MON advcfl_vvel_max              =   3.0133625846569E-03
(PID.TID 0000.0001) %MON advcfl_wvel_max              =   8.0295214621448E-03
(PID.TID 0000.0001) %MON advcfl_W_hf_max              =   8.0295214621448E-03
(PID.TID 0000.0001) %MON pe_b_mean                    =  -8.2958573222641E-01
(PID.TID 0000.0001) %MON ke_max                       =   7.0950226109418E-04
(PID.TID 0000.0001) %MON ke_mean                      =   9.5868516306828E-07
(PID.TID 0000.0001) %MON ke_vol                       =   4.2724691950310E+12
(PID.TID 0000.0001) // =======================================================
(PID.TID 0000.0001) // End MONITOR dynamic field statistics
(PID.TID 0000.0001) // =======================================================
(PID.TID 0000.0001) // =======================================================
(PID.TID 0000.0001) // Begin OBCS MONITOR field statistics
(PID.TID 0000.0001) // =======================================================
(PID.TID 0000.0001) %MON obc_N_vVel_max               =   1.4793935218865E-05
(PID.TID 0000.0001) %MON obc_N_vVel_min               =   1.4793935218865E-05
(PID.TID 0000.0001) %MON obc_N_vVel_mean              =   1.4793935218865E-05
(PID.TID 0000.0001) %MON obc_N_vVel_sd                =   3.9415080717298E-12
(PID.TID 0000.0001) %MON obc_N_vVel_Int               =   9.7639972444506E+02
(PID.TID 0000.0001) // =======================================================
(PID.TID 0000.0001) // End OBCS MONITOR field statistics
(PID.TID 0000.0001) // =======================================================
 cg2d: Sum(rhs),rhsMax =   4.50702977140479E+00  2.99953074560978E+02
(PID.TID 0000.0001)      cg2d_init_res =   9.12284543277791E-06
(PID.TID 0000.0001)      cg2d_iters(min,last) =      -1      83
(PID.TID 0000.0001)      cg2d_last_res =   9.92387284324324E-12
(PID.TID 0000.0001) // =======================================================
(PID.TID 0000.0001) // Begin MONITOR dynamic field statistics
(PID.TID 0000.0001) // =======================================================
(PID.TID 0000.0001) %MON time_tsnumber                =                  1299
(PID.TID 0000.0001) %MON time_secondsf                =   1.2990000000000E+05
(PID.TID 0000.0001) %MON dynstat_eta_max              =   5.7980430911128E+00
(PID.TID 0000.0001) %MON dynstat_eta_min              =  -1.4188785717274E+01
(PID.TID 0000.0001) %MON dynstat_eta_mean             =  -2.5035137723532E+00
(PID.TID 0000.0001) %MON dynstat_eta_sd               =   4.9498389042456E+00
(PID.TID 0000.0001) %MON dynstat_eta_del2             =   2.0716054741170E-01
(PID.TID 0000.0001) %MON dynstat_uvel_max             =   9.2340919455438E-03
(PID.TID 0000.0001) %MON dynstat_uvel_min             =  -4.2486837810169E-02
(PID.TID 0000.0001) %MON dynstat_uvel_mean            =  -1.1138590111501E-07
(PID.TID 0000.0001) %MON dynstat_uvel_sd              =   1.2248182764383E-03
(PID.TID 0000.0001) %MON dynstat_uvel_del2            =   1.8159986499931E-06
(PID.TID 0000.0001) %MON dynstat_vvel_max             =   3.0184477862898E-02
(PID.TID 0000.0001) %MON dynstat_vvel_min             =  -1.4057507059952E-02
(PID.TID 0000.0001) %MON dynstat_vvel_mean            =   1.5113726547274E-05
(PID.TID 0000.0001) %MON dynstat_vvel_sd              =   6.7464811909973E-04
(PID.TID 0000.0001) %MON dynstat_vvel_del2            =   1.3864295712238E-06
(PID.TID 0000.0001) %MON dynstat_wvel_max             =   1.6090288807185E-03
(PID.TID 0000.0001) %MON dynstat_wvel_min             =  -1.5471907188133E-03
(PID.TID 0000.0001) %MON dynstat_wvel_mean            =   7.2967306531182E-09
(PID.TID 0000.0001) %MON dynstat_wvel_sd              =   2.5908693989009E-05
(PID.TID 0000.0001) %MON dynstat_wvel_del2            =   1.0596978882977E-07
(PID.TID 0000.0001) %MON dynstat_theta_max            =   1.2000000000000E+00
(PID.TID 0000.0001) %MON dynstat_theta_min            =  -1.0000000000000E+00
(PID.TID 0000.0001) %MON dynstat_theta_mean           =   5.6847978862036E-01
(PID.TID 0000.0001) %MON dynstat_theta_sd             =   8.6824733011905E-01
(PID.TID 0000.0001) %MON dynstat_theta_del2           =   4.4298645591714E-06
(PID.TID 0000.0001) %MON dynstat_salt_max             =   3.4700000000000E+01
(PID.TID 0000.0001) %MON dynstat_salt_min             =   3.4000000000000E+01
(PID.TID 0000.0001) %MON dynstat_salt_mean            =   3.4499006034975E+01
(PID.TID 0000.0001) %MON dynstat_salt_sd              =   2.7623843697374E-01
(PID.TID 0000.0001) %MON dynstat_salt_del2            =   1.7532628232635E-06
(PID.TID 0000.0001) %MON advcfl_uvel_max              =   4.2486837810169E-03
(PID.TID 0000.0001) %MON advcfl_vvel_max              =   3.0184477862898E-03
(PID.TID 0000.0001) %MON advcfl_wvel_max              =   8.0451444035927E-03
(PID.TID 0000.0001) %MON advcfl_W_hf_max              =   8.0451444035927E-03
(PID.TID 0000.0001) %MON pe_b_mean                    =  -8.2958682887896E-01
(PID.TID 0000.0001) %MON ke_max                       =   7.1315756036959E-04
(PID.TID 0000.0001) %MON ke_mean                      =   9.6289793355507E-07
(PID.TID 0000.0001) %MON ke_vol                       =   4.2724691616233E+12
(PID.TID 0000.0001) // =======================================================
(PID.TID 0000.0001) // End MONITOR dynamic field statistics
(PID.TID 0000.0001) // =======================================================
(PID.TID 0000.0001) // =======================================================
(PID.TID 0000.0001) // Begin OBCS MONITOR field statistics
(PID.TID 0000.0001) // =======================================================
(PID.TID 0000.0001) %MON obc_N_vVel_max               =   1.4814536710459E-05
(PID.TID 0000.0001) %MON obc_N_vVel_min               =   1.4814536710458E-05
(PID.TID 0000.0001) %MON obc_N_vVel_mean              =   1.4814536710458E-05
(PID.TID 0000.0001) %MON obc_N_vVel_sd                =   2.1390050872272E-12
(PID.TID 0000.0001) %MON obc_N_vVel_Int               =   9.7775942289024E+02
(PID.TID 0000.0001) // =======================================================
(PID.TID 0000.0001) // End OBCS MONITOR field statistics
(PID.TID 0000.0001) // =======================================================
 cg2d: Sum(rhs),rhsMax =   4.50703876829198E+00  2.99953150664510E+02
(PID.TID 0000.0001)      cg2d_init_res =   9.14406548590307E-06
(PID.TID 0000.0001)      cg2d_iters(min,last) =      -1      83
(PID.TID 0000.0001)      cg2d_last_res =   9.93498509094392E-12
(PID.TID 0000.0001) // =======================================================
(PID.TID 0000.0001) // Begin MONITOR dynamic field statistics
(PID.TID 0000.0001) // =======================================================
(PID.TID 0000.0001) %MON time_tsnumber                =                  1300
(PID.TID 0000.0001) %MON time_secondsf                =   1.3000000000000E+05
(PID.TID 0000.0001) %MON dynstat_eta_max              =   5.7980324709373E+00
(PID.TID 0000.0001) %MON dynstat_eta_min              =  -1.4188815336361E+01
(PID.TID 0000.0001) %MON dynstat_eta_mean             =  -2.5035194050301E+00
(PID.TID 0000.0001) %MON dynstat_eta_sd               =   4.9498412507877E+00
(PID.TID 0000.0001) %MON dynstat_eta_del2             =   2.0716059196129E-01
(PID.TID 0000.0001) %MON dynstat_uvel_max             =   9.2542548401049E-03
(PID.TID 0000.0001) %MON dynstat_uvel_min             =  -4.2586760956645E-02
(PID.TID 0000.0001) %MON dynstat_uvel_mean            =  -1.1140446954853E-07
(PID.TID 0000.0001) %MON dynstat_uvel_sd              =   1.2276050328069E-03
(PID.TID 0000.0001) %MON dynstat_uvel_del2            =   1.8203971915459E-06
(PID.TID 0000.0001) %MON dynstat_vvel_max             =   3.0235332407738E-02
(PID.TID 0000.0001) %MON dynstat_vvel_min             =  -1.4092873046414E-02
(PID.TID 0000.0001) %MON dynstat_vvel_mean            =   1.5138191951153E-05
(PID.TID 0000.0001) %MON dynstat_vvel_sd              =   6.7595200176204E-04
(PID.TID 0000.0001) %MON dynstat_vvel_del2            =   1.3892610862073E-06
(PID.TID 0000.0001) %MON dynstat_wvel_max             =   1.6121549462289E-03
(PID.TID 0000.0001) %MON dynstat_wvel_min             =  -1.5502649117543E-03
(PID.TID 0000.0001) %MON dynstat_wvel_mean            =   7.3293015348484E-09
(PID.TID 0000.0001) %MON dynstat_wvel_sd              =   2.5968402319692E-05
(PID.TID 0000.0001) %MON dynstat_wvel_del2            =   1.0621341724067E-07
(PID.TID 0000.0001) %MON dynstat_theta_max            =   1.2000000000000E+00
(PID.TID 0000.0001) %MON dynstat_theta_min            =  -1.0000000000000E+00
(PID.TID 0000.0001) %MON dynstat_theta_mean           =   5.6847849473640E-01
(PID.TID 0000.0001) %MON dynstat_theta_sd             =   8.6824663714140E-01
(PID.TID 0000.0001) %MON dynstat_theta_del2           =   4.4385126655886E-06
(PID.TID 0000.0001) %MON dynstat_salt_max             =   3.4700000000000E+01
(PID.TID 0000.0001) %MON dynstat_salt_min             =   3.4000000000000E+01
(PID.TID 0000.0001) %MON dynstat_salt_mean            =   3.4499005516979E+01
(PID.TID 0000.0001) %MON dynstat_salt_sd              =   2.7623817075830E-01
(PID.TID 0000.0001) %MON dynstat_salt_del2            =   1.7567141394369E-06
(PID.TID 0000.0001) %MON advcfl_uvel_max              =   4.2586760956645E-03
(PID.TID 0000.0001) %MON advcfl_vvel_max              =   3.0235332407738E-03
(PID.TID 0000.0001) %MON advcfl_wvel_max              =   8.0607747311443E-03
(PID.TID 0000.0001) %MON advcfl_W_hf_max              =   8.0607747311443E-03
(PID.TID 0000.0001) %MON pe_b_mean                    =  -8.2958792507280E-01
(PID.TID 0000.0001) %MON ke_max                       =   7.1682856697903E-04
(PID.TID 0000.0001) %MON ke_mean                      =   9.6712819039371E-07
(PID.TID 0000.0001) %MON ke_vol                       =   4.2724691281922E+12
(PID.TID 0000.0001) // =======================================================
(PID.TID 0000.0001) // End MONITOR dynamic field statistics
(PID.TID 0000.0001) // =======================================================
(PID.TID 0000.0001) // =======================================================
(PID.TID 0000.0001) // Begin OBCS MONITOR field statistics
(PID.TID 0000.0001) // =======================================================
(PID.TID 0000.0001) %MON obc_N_vVel_max               =   1.4835739949188E-05
(PID.TID 0000.0001) %MON obc_N_vVel_min               =   1.4835739949188E-05
(PID.TID 0000.0001) %MON obc_N_vVel_mean              =   1.4835739949188E-05
(PID.TID 0000.0001) %MON obc_N_vVel_sd                =  -3.1277766912161E-24
(PID.TID 0000.0001) %MON obc_N_vVel_Int               =   9.7915883664644E+02
(PID.TID 0000.0001) // =======================================================
(PID.TID 0000.0001) // End OBCS MONITOR field statistics
(PID.TID 0000.0001) // =======================================================
 cg2d: Sum(rhs),rhsMax =   4.50704777136797E+00  2.99953226927053E+02
(PID.TID 0000.0001)      cg2d_init_res =   9.16425679634260E-06
(PID.TID 0000.0001)      cg2d_iters(min,last) =      -1      83
(PID.TID 0000.0001)      cg2d_last_res =   9.94433875618289E-12
(PID.TID 0000.0001) // =======================================================
(PID.TID 0000.0001) // Begin MONITOR dynamic field statistics
(PID.TID 0000.0001) // =======================================================
(PID.TID 0000.0001) %MON time_tsnumber                =                  1301
(PID.TID 0000.0001) %MON time_secondsf                =   1.3010000000000E+05
(PID.TID 0000.0001) %MON dynstat_eta_max              =   5.7980218387550E+00
(PID.TID 0000.0001) %MON dynstat_eta_min              =  -1.4188844977450E+01
(PID.TID 0000.0001) %MON dynstat_eta_mean             =  -2.5035250424745E+00
(PID.TID 0000.0001) %MON dynstat_eta_sd               =   4.9498435995276E+00
(PID.TID 0000.0001) %MON dynstat_eta_del2             =   2.0716063658079E-01
(PID.TID 0000.0001) %MON dynstat_uvel_max             =   9.2744513385341E-03
(PID.TID 0000.0001) %MON dynstat_uvel_min             =  -4.2686821551463E-02
(PID.TID 0000.0001) %MON dynstat_uvel_mean            =  -1.1140132598266E-07
(PID.TID 0000.0001) %MON dynstat_uvel_sd              =   1.2303974524904E-03
(PID.TID 0000.0001) %MON dynstat_uvel_del2            =   1.8248065438378E-06
(PID.TID 0000.0001) %MON dynstat_vvel_max             =   3.0286189132016E-02
(PID.TID 0000.0001) %MON dynstat_vvel_min             =  -1.4128317145854E-02
(PID.TID 0000.0001) %MON dynstat_vvel_mean            =   1.5162611919894E-05
(PID.TID 0000.0001) %MON dynstat_vvel_sd              =   6.7725780321910E-04
(PID.TID 0000.0001) %MON dynstat_vvel_del2            =   1.3920937325028E-06
(PID.TID 0000.0001) %MON dynstat_wvel_max             =   1.6152824725996E-03
(PID.TID 0000.0001) %MON dynstat_wvel_min             =  -1.5533413055458E-03
(PID.TID 0000.0001) %MON dynstat_wvel_mean            =   7.3585047381314E-09
(PID.TID 0000.0001) %MON dynstat_wvel_sd              =   2.6026205427896E-05
(PID.TID 0000.0001) %MON dynstat_wvel_del2            =   1.0644690732251E-07
(PID.TID 0000.0001) %MON dynstat_theta_max            =   1.2000000000000E+00
(PID.TID 0000.0001) %MON dynstat_theta_min            =  -1.0000000000000E+00
(PID.TID 0000.0001) %MON dynstat_theta_mean           =   5.6847719865183E-01
(PID.TID 0000.0001) %MON dynstat_theta_sd             =   8.6824594300017E-01
(PID.TID 0000.0001) %MON dynstat_theta_del2           =   4.4471772319609E-06
(PID.TID 0000.0001) %MON dynstat_salt_max             =   3.4700000000000E+01
(PID.TID 0000.0001) %MON dynstat_salt_min             =   3.4000000000000E+01
(PID.TID 0000.0001) %MON dynstat_salt_mean            =   3.4499004998095E+01
(PID.TID 0000.0001) %MON dynstat_salt_sd              =   2.7623790410573E-01
(PID.TID 0000.0001) %MON dynstat_salt_del2            =   1.7601714597575E-06
(PID.TID 0000.0001) %MON advcfl_uvel_max              =   4.2686821551463E-03
(PID.TID 0000.0001) %MON advcfl_vvel_max              =   3.0286189132016E-03
(PID.TID 0000.0001) %MON advcfl_wvel_max              =   8.0764123629978E-03
(PID.TID 0000.0001) %MON advcfl_W_hf_max              =   8.0764123629978E-03
(PID.TID 0000.0001) %MON pe_b_mean                    =  -8.2958902075372E-01
(PID.TID 0000.0001) %MON ke_max                       =   7.2051532122144E-04
(PID.TID 0000.0001) %MON ke_mean                      =   9.7137588869507E-07
(PID.TID 0000.0001) %MON ke_vol                       =   4.2724690947341E+12
(PID.TID 0000.0001) // =======================================================
(PID.TID 0000.0001) // End MONITOR dynamic field statistics
(PID.TID 0000.0001) // =======================================================
(PID.TID 0000.0001) // =======================================================
(PID.TID 0000.0001) // Begin OBCS MONITOR field statistics
(PID.TID 0000.0001) // =======================================================
(PID.TID 0000.0001) %MON obc_N_vVel_max               =   1.4857163706264E-05
(PID.TID 0000.0001) %MON obc_N_vVel_min               =   1.4857163706263E-05
(PID.TID 0000.0001) %MON obc_N_vVel_mean              =   1.4857163706264E-05
(PID.TID 0000.0001) %MON obc_N_vVel_sd                =  -8.1167097606766E-24
(PID.TID 0000.0001) %MON obc_N_vVel_Int               =   9.8057280461341E+02
(PID.TID 0000.0001) // =======================================================
(PID.TID 0000.0001) // End OBCS MONITOR field statistics
(PID.TID 0000.0001) // =======================================================
 cg2d: Sum(rhs),rhsMax =   4.50705678065171E+00  2.99953303321636E+02
(PID.TID 0000.0001)      cg2d_init_res =   9.18322955115177E-06
(PID.TID 0000.0001)      cg2d_iters(min,last) =      -1      83
(PID.TID 0000.0001)      cg2d_last_res =   9.95192244954173E-12
(PID.TID 0000.0001) // =======================================================
(PID.TID 0000.0001) // Begin MONITOR dynamic field statistics
(PID.TID 0000.0001) // =======================================================
(PID.TID 0000.0001) %MON time_tsnumber                =                  1302
(PID.TID 0000.0001) %MON time_secondsf                =   1.3020000000000E+05
(PID.TID 0000.0001) %MON dynstat_eta_max              =   5.7980111954934E+00
(PID.TID 0000.0001) %MON dynstat_eta_min              =  -1.4188874640259E+01
(PID.TID 0000.0001) %MON dynstat_eta_mean             =  -2.5035306844716E+00
(PID.TID 0000.0001) %MON dynstat_eta_sd               =   4.9498459500481E+00
(PID.TID 0000.0001) %MON dynstat_eta_del2             =   2.0716068126967E-01
(PID.TID 0000.0001) %MON dynstat_uvel_max             =   9.2946814974262E-03
(PID.TID 0000.0001) %MON dynstat_uvel_min             =  -4.2787019547364E-02
(PID.TID 0000.0001) %MON dynstat_uvel_mean            =  -1.1137594040045E-07
(PID.TID 0000.0001) %MON dynstat_uvel_sd              =   1.2331955437811E-03
(PID.TID 0000.0001) %MON dynstat_uvel_del2            =   1.8292267337419E-06
(PID.TID 0000.0001) %MON dynstat_vvel_max             =   3.0337047687515E-02
(PID.TID 0000.0001) %MON dynstat_vvel_min             =  -1.4163839583659E-02
(PID.TID 0000.0001) %MON dynstat_vvel_mean            =   1.5186553619187E-05
(PID.TID 0000.0001) %MON dynstat_vvel_sd              =   6.7856539540670E-04
(PID.TID 0000.0001) %MON dynstat_vvel_del2            =   1.3949265813037E-06
(PID.TID 0000.0001) %MON dynstat_wvel_max             =   1.6184114434114E-03
(PID.TID 0000.0001) %MON dynstat_wvel_min             =  -1.5564198830108E-03
(PID.TID 0000.0001) %MON dynstat_wvel_mean            =   7.3838577194785E-09
(PID.TID 0000.0001) %MON dynstat_wvel_sd              =   2.6081440956025E-05
(PID.TID 0000.0001) %MON dynstat_wvel_del2            =   1.0666601951826E-07
(PID.TID 0000.0001) %MON dynstat_theta_max            =   1.2000000000000E+00
(PID.TID 0000.0001) %MON dynstat_theta_min            =  -1.0000000000000E+00
(PID.TID 0000.0001) %MON dynstat_theta_mean           =   5.6847590036327E-01
(PID.TID 0000.0001) %MON dynstat_theta_sd             =   8.6824524769337E-01
(PID.TID 0000.0001) %MON dynstat_theta_del2           =   4.4558597729041E-06
(PID.TID 0000.0001) %MON dynstat_salt_max             =   3.4700000000000E+01
(PID.TID 0000.0001) %MON dynstat_salt_min             =   3.4000000000000E+01
(PID.TID 0000.0001) %MON dynstat_salt_mean            =   3.4499004478323E+01
(PID.TID 0000.0001) %MON dynstat_salt_sd              =   2.7623763701544E-01
(PID.TID 0000.0001) %MON dynstat_salt_del2            =   1.7636352042562E-06
(PID.TID 0000.0001) %MON advcfl_uvel_max              =   4.2787019547364E-03
(PID.TID 0000.0001) %MON advcfl_vvel_max              =   3.0337047687515E-03
(PID.TID 0000.0001) %MON advcfl_wvel_max              =   8.0920572170570E-03
(PID.TID 0000.0001) %MON advcfl_W_hf_max              =   8.0920572170570E-03
(PID.TID 0000.0001) %MON pe_b_mean                    =  -8.2959011575830E-01
(PID.TID 0000.0001) %MON ke_max                       =   7.2421786316847E-04
(PID.TID 0000.0001) %MON ke_mean                      =   9.7564099907721E-07
(PID.TID 0000.0001) %MON ke_vol                       =   4.2724690612477E+12
(PID.TID 0000.0001) // =======================================================
(PID.TID 0000.0001) // End MONITOR dynamic field statistics
(PID.TID 0000.0001) // =======================================================
(PID.TID 0000.0001) // =======================================================
(PID.TID 0000.0001) // Begin OBCS MONITOR field statistics
(PID.TID 0000.0001) // =======================================================
(PID.TID 0000.0001) %MON obc_N_vVel_max               =   1.4878425488746E-05
(PID.TID 0000.0001) %MON obc_N_vVel_min               =   1.4878425488746E-05
(PID.TID 0000.0001) %MON obc_N_vVel_mean              =   1.4878425488746E-05
(PID.TID 0000.0001) %MON obc_N_vVel_sd                =   3.3609798035956E-12
(PID.TID 0000.0001) %MON obc_N_vVel_Int               =   9.8197608225724E+02
(PID.TID 0000.0001) // =======================================================
(PID.TID 0000.0001) // End OBCS MONITOR field statistics
(PID.TID 0000.0001) // =======================================================
 cg2d: Sum(rhs),rhsMax =   4.50706579545849E+00  2.99953379817911E+02
(PID.TID 0000.0001)      cg2d_init_res =   9.20082322231627E-06
(PID.TID 0000.0001)      cg2d_iters(min,last) =      -1      83
(PID.TID 0000.0001)      cg2d_last_res =   9.95773875977168E-12
(PID.TID 0000.0001) // =======================================================
(PID.TID 0000.0001) // Begin MONITOR dynamic field statistics
(PID.TID 0000.0001) // =======================================================
(PID.TID 0000.0001) %MON time_tsnumber                =                  1303
(PID.TID 0000.0001) %MON time_secondsf                =   1.3030000000000E+05
(PID.TID 0000.0001) %MON dynstat_eta_max              =   5.7980005428923E+00
(PID.TID 0000.0001) %MON dynstat_eta_min              =  -1.4188904324060E+01
(PID.TID 0000.0001) %MON dynstat_eta_mean             =  -2.5035363303879E+00
(PID.TID 0000.0001) %MON dynstat_eta_sd               =   4.9498483018061E+00
(PID.TID 0000.0001) %MON dynstat_eta_del2             =   2.0716072602737E-01
(PID.TID 0000.0001) %MON dynstat_uvel_max             =   9.3149453717025E-03
(PID.TID 0000.0001) %MON dynstat_uvel_min             =  -4.2887354895036E-02
(PID.TID 0000.0001) %MON dynstat_uvel_mean            =  -1.1132830478098E-07
(PID.TID 0000.0001) %MON dynstat_uvel_sd              =   1.2359993148604E-03
(PID.TID 0000.0001) %MON dynstat_uvel_del2            =   1.8336577875050E-06
(PID.TID 0000.0001) %MON dynstat_vvel_max             =   3.0387907728439E-02
(PID.TID 0000.0001) %MON dynstat_vvel_min             =  -1.4199440582878E-02
(PID.TID 0000.0001) %MON dynstat_vvel_mean            =   1.5209595928905E-05
(PID.TID 0000.0001) %MON dynstat_vvel_sd              =   6.7987468099360E-04
(PID.TID 0000.0001) %MON dynstat_vvel_del2            =   1.3977590343773E-06
(PID.TID 0000.0001) %MON dynstat_wvel_max             =   1.6215418421675E-03
(PID.TID 0000.0001) %MON dynstat_wvel_min             =  -1.5595006271313E-03
(PID.TID 0000.0001) %MON dynstat_wvel_mean            =   7.4049506514540E-09
(PID.TID 0000.0001) %MON dynstat_wvel_sd              =   2.6133645529760E-05
(PID.TID 0000.0001) %MON dynstat_wvel_del2            =   1.0686765270489E-07
(PID.TID 0000.0001) %MON dynstat_theta_max            =   1.2000000000000E+00
(PID.TID 0000.0001) %MON dynstat_theta_min            =  -1.0000000000000E+00
(PID.TID 0000.0001) %MON dynstat_theta_mean           =   5.6847459986701E-01
(PID.TID 0000.0001) %MON dynstat_theta_sd             =   8.6824455121886E-01
(PID.TID 0000.0001) %MON dynstat_theta_del2           =   4.4645614211063E-06
(PID.TID 0000.0001) %MON dynstat_salt_max             =   3.4700000000000E+01
(PID.TID 0000.0001) %MON dynstat_salt_min             =   3.4000000000000E+01
(PID.TID 0000.0001) %MON dynstat_salt_mean            =   3.4499003957660E+01
(PID.TID 0000.0001) %MON dynstat_salt_sd              =   2.7623736948675E-01
(PID.TID 0000.0001) %MON dynstat_salt_del2            =   1.7671057140422E-06
(PID.TID 0000.0001) %MON advcfl_uvel_max              =   4.2887354895036E-03
(PID.TID 0000.0001) %MON advcfl_vvel_max              =   3.0387907728439E-03
(PID.TID 0000.0001) %MON advcfl_wvel_max              =   8.1077092108373E-03
(PID.TID 0000.0001) %MON advcfl_W_hf_max              =   8.1077092108373E-03
(PID.TID 0000.0001) %MON pe_b_mean                    =  -8.2959120981736E-01
(PID.TID 0000.0001) %MON ke_max                       =   7.2793623288305E-04
(PID.TID 0000.0001) %MON ke_mean                      =   9.7992351257860E-07
(PID.TID 0000.0001) %MON ke_vol                       =   4.2724690277342E+12
(PID.TID 0000.0001) // =======================================================
(PID.TID 0000.0001) // End MONITOR dynamic field statistics
(PID.TID 0000.0001) // =======================================================
(PID.TID 0000.0001) // =======================================================
(PID.TID 0000.0001) // Begin OBCS MONITOR field statistics
(PID.TID 0000.0001) // =======================================================
(PID.TID 0000.0001) %MON obc_N_vVel_max               =   1.4899148498749E-05
(PID.TID 0000.0001) %MON obc_N_vVel_min               =   1.4899148498748E-05
(PID.TID 0000.0001) %MON obc_N_vVel_mean              =   1.4899148498748E-05
(PID.TID 0000.0001) %MON obc_N_vVel_sd                =   3.3763268231536E-12
(PID.TID 0000.0001) %MON obc_N_vVel_Int               =   9.8334380091738E+02
(PID.TID 0000.0001) // =======================================================
(PID.TID 0000.0001) // End OBCS MONITOR field statistics
(PID.TID 0000.0001) // =======================================================
 cg2d: Sum(rhs),rhsMax =   4.50707481441756E+00  2.99953456382778E+02
(PID.TID 0000.0001)      cg2d_init_res =   9.21691349774914E-06
(PID.TID 0000.0001)      cg2d_iters(min,last) =      -1      83
(PID.TID 0000.0001)      cg2d_last_res =   9.96184463504903E-12
(PID.TID 0000.0001) // =======================================================
(PID.TID 0000.0001) // Begin MONITOR dynamic field statistics
(PID.TID 0000.0001) // =======================================================
(PID.TID 0000.0001) %MON time_tsnumber                =                  1304
(PID.TID 0000.0001) %MON time_secondsf                =   1.3040000000000E+05
(PID.TID 0000.0001) %MON dynstat_eta_max              =   5.7979898833819E+00
(PID.TID 0000.0001) %MON dynstat_eta_min              =  -1.4188934027703E+01
(PID.TID 0000.0001) %MON dynstat_eta_mean             =  -2.5035419791858E+00
(PID.TID 0000.0001) %MON dynstat_eta_sd               =   4.9498506541423E+00
(PID.TID 0000.0001) %MON dynstat_eta_del2             =   2.0716077085324E-01
(PID.TID 0000.0001) %MON dynstat_uvel_max             =   9.3352430141067E-03
(PID.TID 0000.0001) %MON dynstat_uvel_min             =  -4.2987827545044E-02
(PID.TID 0000.0001) %MON dynstat_uvel_mean            =  -1.1125896670295E-07
(PID.TID 0000.0001) %MON dynstat_uvel_sd              =   1.2388087738038E-03
(PID.TID 0000.0001) %MON dynstat_uvel_del2            =   1.8380997308148E-06
(PID.TID 0000.0001) %MON dynstat_vvel_max             =   3.0438768913099E-02
(PID.TID 0000.0001) %MON dynstat_vvel_min             =  -1.4235120362143E-02
(PID.TID 0000.0001) %MON dynstat_vvel_mean            =   1.5231337004821E-05
(PID.TID 0000.0001) %MON dynstat_vvel_sd              =   6.8118559795107E-04
(PID.TID 0000.0001) %MON dynstat_vvel_del2            =   1.4005908596114E-06
(PID.TID 0000.0001) %MON dynstat_wvel_max             =   1.6246736523181E-03
(PID.TID 0000.0001) %MON dynstat_wvel_min             =  -1.5625835210793E-03
(PID.TID 0000.0001) %MON dynstat_wvel_mean            =   7.4214535599198E-09
(PID.TID 0000.0001) %MON dynstat_wvel_sd              =   2.6182582316755E-05
(PID.TID 0000.0001) %MON dynstat_wvel_del2            =   1.0705005572536E-07
(PID.TID 0000.0001) %MON dynstat_theta_max            =   1.2000000000000E+00
(PID.TID 0000.0001) %MON dynstat_theta_min            =  -1.0000000000000E+00
(PID.TID 0000.0001) %MON dynstat_theta_mean           =   5.6847329715912E-01
(PID.TID 0000.0001) %MON dynstat_theta_sd             =   8.6824385357764E-01
(PID.TID 0000.0001) %MON dynstat_theta_del2           =   4.4732830554046E-06
(PID.TID 0000.0001) %MON dynstat_salt_max             =   3.4700000000000E+01
(PID.TID 0000.0001) %MON dynstat_salt_min             =   3.4000000000000E+01
(PID.TID 0000.0001) %MON dynstat_salt_mean            =   3.4499003436106E+01
(PID.TID 0000.0001) %MON dynstat_salt_sd              =   2.7623710151978E-01
(PID.TID 0000.0001) %MON dynstat_salt_del2            =   1.7705832381286E-06
(PID.TID 0000.0001) %MON advcfl_uvel_max              =   4.2987827545044E-03
(PID.TID 0000.0001) %MON advcfl_vvel_max              =   3.0438768913099E-03
(PID.TID 0000.0001) %MON advcfl_wvel_max              =   8.1233682615906E-03
(PID.TID 0000.0001) %MON advcfl_W_hf_max              =   8.1233682615906E-03
(PID.TID 0000.0001) %MON pe_b_mean                    =  -8.2959230256157E-01
(PID.TID 0000.0001) %MON ke_max                       =   7.3167047046981E-04
(PID.TID 0000.0001) %MON ke_mean                      =   9.8422344409444E-07
(PID.TID 0000.0001) %MON ke_vol                       =   4.2724689941975E+12
(PID.TID 0000.0001) // =======================================================
(PID.TID 0000.0001) // End MONITOR dynamic field statistics
(PID.TID 0000.0001) // =======================================================
(PID.TID 0000.0001) // =======================================================
(PID.TID 0000.0001) // Begin OBCS MONITOR field statistics
(PID.TID 0000.0001) // =======================================================
(PID.TID 0000.0001) %MON obc_N_vVel_max               =   1.4918968407530E-05
(PID.TID 0000.0001) %MON obc_N_vVel_min               =   1.4918968407530E-05
(PID.TID 0000.0001) %MON obc_N_vVel_mean              =   1.4918968407530E-05
(PID.TID 0000.0001) %MON obc_N_vVel_sd                =  -2.0524418948972E-23
(PID.TID 0000.0001) %MON obc_N_vVel_Int               =   9.8465191489700E+02
(PID.TID 0000.0001) // =======================================================
(PID.TID 0000.0001) // End OBCS MONITOR field statistics
(PID.TID 0000.0001) // =======================================================
 cg2d: Sum(rhs),rhsMax =   4.50708383549728E+00  2.99953532981169E+02
(PID.TID 0000.0001)      cg2d_init_res =   9.23141491199613E-06
(PID.TID 0000.0001)      cg2d_iters(min,last) =      -1      83
(PID.TID 0000.0001)      cg2d_last_res =   9.96432439157729E-12
(PID.TID 0000.0001) // =======================================================
(PID.TID 0000.0001) // Begin MONITOR dynamic field statistics
(PID.TID 0000.0001) // =======================================================
(PID.TID 0000.0001) %MON time_tsnumber                =                  1305
(PID.TID 0000.0001) %MON time_secondsf                =   1.3050000000000E+05
(PID.TID 0000.0001) %MON dynstat_eta_max              =   5.7979880095652E+00
(PID.TID 0000.0001) %MON dynstat_eta_min              =  -1.4188963749651E+01
(PID.TID 0000.0001) %MON dynstat_eta_mean             =  -2.5035476294439E+00
(PID.TID 0000.0001) %MON dynstat_eta_sd               =   4.9498530062946E+00
(PID.TID 0000.0001) %MON dynstat_eta_del2             =   2.0716081574662E-01
(PID.TID 0000.0001) %MON dynstat_uvel_max             =   9.3555744743981E-03
(PID.TID 0000.0001) %MON dynstat_uvel_min             =  -4.3088437448467E-02
(PID.TID 0000.0001) %MON dynstat_uvel_mean            =  -1.1116903512640E-07
(PID.TID 0000.0001) %MON dynstat_uvel_sd              =   1.2416239285855E-03
(PID.TID 0000.0001) %MON dynstat_uvel_del2            =   1.8425525888428E-06
(PID.TID 0000.0001) %MON dynstat_vvel_max             =   3.0489630905319E-02
(PID.TID 0000.0001) %MON dynstat_vvel_min             =  -1.4270879134219E-02
(PID.TID 0000.0001) %MON dynstat_vvel_mean            =   1.5251401452468E-05
(PID.TID 0000.0001) %MON dynstat_vvel_sd              =   6.8249812162179E-04
(PID.TID 0000.0001) %MON dynstat_vvel_del2            =   1.4034222001219E-06
(PID.TID 0000.0001) %MON dynstat_wvel_max             =   1.6278068572232E-03
(PID.TID 0000.0001) %MON dynstat_wvel_min             =  -1.5656685482816E-03
(PID.TID 0000.0001) %MON dynstat_wvel_mean            =   7.4331219476057E-09
(PID.TID 0000.0001) %MON dynstat_wvel_sd              =   2.6228251673858E-05
(PID.TID 0000.0001) %MON dynstat_wvel_del2            =   1.0721293854906E-07
(PID.TID 0000.0001) %MON dynstat_theta_max            =   1.2000000000000E+00
(PID.TID 0000.0001) %MON dynstat_theta_min            =  -1.0000000000000E+00
(PID.TID 0000.0001) %MON dynstat_theta_mean           =   5.6847199223544E-01
(PID.TID 0000.0001) %MON dynstat_theta_sd             =   8.6824315477072E-01
(PID.TID 0000.0001) %MON dynstat_theta_del2           =   4.4820250474678E-06
(PID.TID 0000.0001) %MON dynstat_salt_max             =   3.4700000000000E+01
(PID.TID 0000.0001) %MON dynstat_salt_min             =   3.4000000000000E+01
(PID.TID 0000.0001) %MON dynstat_salt_mean            =   3.4499002913658E+01
(PID.TID 0000.0001) %MON dynstat_salt_sd              =   2.7623683311494E-01
(PID.TID 0000.0001) %MON dynstat_salt_del2            =   1.7740679265959E-06
(PID.TID 0000.0001) %MON advcfl_uvel_max              =   4.3088437448467E-03
(PID.TID 0000.0001) %MON advcfl_vvel_max              =   3.0489630905319E-03
(PID.TID 0000.0001) %MON advcfl_wvel_max              =   8.1390342861158E-03
(PID.TID 0000.0001) %MON advcfl_W_hf_max              =   8.1390342861158E-03
(PID.TID 0000.0001) %MON pe_b_mean                    =  -8.2959339352853E-01
(PID.TID 0000.0001) %MON ke_max                       =   7.3542061608921E-04
(PID.TID 0000.0001) %MON ke_mean                      =   9.8854083413834E-07
(PID.TID 0000.0001) %MON ke_vol                       =   4.2724689606436E+12
(PID.TID 0000.0001) // =======================================================
(PID.TID 0000.0001) // End MONITOR dynamic field statistics
(PID.TID 0000.0001) // =======================================================
(PID.TID 0000.0001) // =======================================================
(PID.TID 0000.0001) // Begin OBCS MONITOR field statistics
(PID.TID 0000.0001) // =======================================================
(PID.TID 0000.0001) %MON obc_N_vVel_max               =   1.4937539879008E-05
(PID.TID 0000.0001) %MON obc_N_vVel_min               =   1.4937539879008E-05
(PID.TID 0000.0001) %MON obc_N_vVel_mean              =   1.4937539879008E-05
(PID.TID 0000.0001) %MON obc_N_vVel_sd                =   1.8118700439242E-12
(PID.TID 0000.0001) %MON obc_N_vVel_Int               =   9.8587763201456E+02
(PID.TID 0000.0001) // =======================================================
(PID.TID 0000.0001) // End OBCS MONITOR field statistics
(PID.TID 0000.0001) // =======================================================
 cg2d: Sum(rhs),rhsMax =   4.50709285604523E+00  2.99953609576709E+02
(PID.TID 0000.0001)      cg2d_init_res =   9.24428456235322E-06
(PID.TID 0000.0001)      cg2d_iters(min,last) =      -1      83
(PID.TID 0000.0001)      cg2d_last_res =   9.96529551833568E-12
(PID.TID 0000.0001) // =======================================================
(PID.TID 0000.0001) // Begin MONITOR dynamic field statistics
(PID.TID 0000.0001) // =======================================================
(PID.TID 0000.0001) %MON time_tsnumber                =                  1306
(PID.TID 0000.0001) %MON time_secondsf                =   1.3060000000000E+05
(PID.TID 0000.0001) %MON dynstat_eta_max              =   5.7980057679919E+00
(PID.TID 0000.0001) %MON dynstat_eta_min              =  -1.4188993488018E+01
(PID.TID 0000.0001) %MON dynstat_eta_mean             =  -2.5035532793855E+00
(PID.TID 0000.0001) %MON dynstat_eta_sd               =   4.9498553574115E+00
(PID.TID 0000.0001) %MON dynstat_eta_del2             =   2.0716086070678E-01
(PID.TID 0000.0001) %MON dynstat_uvel_max             =   9.3759397984954E-03
(PID.TID 0000.0001) %MON dynstat_uvel_min             =  -4.3189184557392E-02
(PID.TID 0000.0001) %MON dynstat_uvel_mean            =  -1.1106014649718E-07
(PID.TID 0000.0001) %MON dynstat_uvel_sd              =   1.2444447870840E-03
(PID.TID 0000.0001) %MON dynstat_uvel_del2            =   1.8470163862619E-06
(PID.TID 0000.0001) %MON dynstat_vvel_max             =   3.0540493375859E-02
(PID.TID 0000.0001) %MON dynstat_vvel_min             =  -1.4306717104844E-02
(PID.TID 0000.0001) %MON dynstat_vvel_mean            =   1.5269446984450E-05
(PID.TID 0000.0001) %MON dynstat_vvel_sd              =   6.8381226418475E-04
(PID.TID 0000.0001) %MON dynstat_vvel_del2            =   1.4062535563839E-06
(PID.TID 0000.0001) %MON dynstat_wvel_max             =   1.6309414401592E-03
(PID.TID 0000.0001) %MON dynstat_wvel_min             =  -1.5687556907151E-03
(PID.TID 0000.0001) %MON dynstat_wvel_mean            =   7.4398009576294E-09
(PID.TID 0000.0001) %MON dynstat_wvel_sd              =   2.6270884366987E-05
(PID.TID 0000.0001) %MON dynstat_wvel_del2            =   1.0735747545155E-07
(PID.TID 0000.0001) %MON dynstat_theta_max            =   1.2000000000000E+00
(PID.TID 0000.0001) %MON dynstat_theta_min            =  -1.0000000000000E+00
(PID.TID 0000.0001) %MON dynstat_theta_mean           =   5.6847068509150E-01
(PID.TID 0000.0001) %MON dynstat_theta_sd             =   8.6824245479921E-01
(PID.TID 0000.0001) %MON dynstat_theta_del2           =   4.4907874547496E-06
(PID.TID 0000.0001) %MON dynstat_salt_max             =   3.4700000000000E+01
(PID.TID 0000.0001) %MON dynstat_salt_min             =   3.4000000000000E+01
(PID.TID 0000.0001) %MON dynstat_salt_mean            =   3.4499002390314E+01
(PID.TID 0000.0001) %MON dynstat_salt_sd              =   2.7623656427262E-01
(PID.TID 0000.0001) %MON dynstat_salt_del2            =   1.7775598387197E-06
(PID.TID 0000.0001) %MON advcfl_uvel_max              =   4.3189184557392E-03
(PID.TID 0000.0001) %MON advcfl_vvel_max              =   3.0540493375859E-03
(PID.TID 0000.0001) %MON advcfl_wvel_max              =   8.1547072007958E-03
(PID.TID 0000.0001) %MON advcfl_W_hf_max              =   8.1547072007958E-03
(PID.TID 0000.0001) %MON pe_b_mean                    =  -8.2959448217161E-01
(PID.TID 0000.0001) %MON ke_max                       =   7.3918670997729E-04
(PID.TID 0000.0001) %MON ke_mean                      =   9.9287574883519E-07
(PID.TID 0000.0001) %MON ke_vol                       =   4.2724689270811E+12
(PID.TID 0000.0001) // =======================================================
(PID.TID 0000.0001) // End MONITOR dynamic field statistics
(PID.TID 0000.0001) // =======================================================
(PID.TID 0000.0001) // =======================================================
(PID.TID 0000.0001) // Begin OBCS MONITOR field statistics
(PID.TID 0000.0001) // =======================================================
(PID.TID 0000.0001) %MON obc_N_vVel_max               =   1.4954542714358E-05
(PID.TID 0000.0001) %MON obc_N_vVel_min               =   1.4954542714358E-05
(PID.TID 0000.0001) %MON obc_N_vVel_mean              =   1.4954542714358E-05
(PID.TID 0000.0001) %MON obc_N_vVel_sd                =   2.3409552661603E-12
(PID.TID 0000.0001) %MON obc_N_vVel_Int               =   9.8699981914762E+02
(PID.TID 0000.0001) // =======================================================
(PID.TID 0000.0001) // End OBCS MONITOR field statistics
(PID.TID 0000.0001) // =======================================================
 cg2d: Sum(rhs),rhsMax =   4.50710187283637E+00  2.99953686132546E+02
(PID.TID 0000.0001)      cg2d_init_res =   9.25551912665313E-06
(PID.TID 0000.0001)      cg2d_iters(min,last) =      -1      83
(PID.TID 0000.0001)      cg2d_last_res =   9.96490018732762E-12
(PID.TID 0000.0001) // =======================================================
(PID.TID 0000.0001) // Begin MONITOR dynamic field statistics
(PID.TID 0000.0001) // =======================================================
(PID.TID 0000.0001) %MON time_tsnumber                =                  1307
(PID.TID 0000.0001) %MON time_secondsf                =   1.3070000000000E+05
(PID.TID 0000.0001) %MON dynstat_eta_max              =   5.7980235816007E+00
(PID.TID 0000.0001) %MON dynstat_eta_min              =  -1.4189023240608E+01
(PID.TID 0000.0001) %MON dynstat_eta_mean             =  -2.5035589269114E+00
(PID.TID 0000.0001) %MON dynstat_eta_sd               =   4.9498577065678E+00
(PID.TID 0000.0001) %MON dynstat_eta_del2             =   2.0716090573298E-01
(PID.TID 0000.0001) %MON dynstat_uvel_max             =   9.3963390282141E-03
(PID.TID 0000.0001) %MON dynstat_uvel_min             =  -4.3290068825260E-02
(PID.TID 0000.0001) %MON dynstat_uvel_mean            =  -1.1093441280989E-07
(PID.TID 0000.0001) %MON dynstat_uvel_sd              =   1.2472713570963E-03
(PID.TID 0000.0001) %MON dynstat_uvel_del2            =   1.8514911474068E-06
(PID.TID 0000.0001) %MON dynstat_vvel_max             =   3.0591356003647E-02
(PID.TID 0000.0001) %MON dynstat_vvel_min             =  -1.4342634471475E-02
(PID.TID 0000.0001) %MON dynstat_vvel_mean            =   1.5285170443324E-05
(PID.TID 0000.0001) %MON dynstat_vvel_sd              =   6.8512807163156E-04
(PID.TID 0000.0001) %MON dynstat_vvel_del2            =   1.4090857425502E-06
(PID.TID 0000.0001) %MON dynstat_wvel_max             =   1.6340773843201E-03
(PID.TID 0000.0001) %MON dynstat_wvel_min             =  -1.5718449304585E-03
(PID.TID 0000.0001) %MON dynstat_wvel_mean            =   7.4414276848266E-09
(PID.TID 0000.0001) %MON dynstat_wvel_sd              =   2.6310918111694E-05
(PID.TID 0000.0001) %MON dynstat_wvel_del2            =   1.0748620042107E-07
(PID.TID 0000.0001) %MON dynstat_theta_max            =   1.2000000000000E+00
(PID.TID 0000.0001) %MON dynstat_theta_min            =  -1.0000000000000E+00
(PID.TID 0000.0001) %MON dynstat_theta_mean           =   5.6846937572250E-01
(PID.TID 0000.0001) %MON dynstat_theta_sd             =   8.6824175366469E-01
(PID.TID 0000.0001) %MON dynstat_theta_del2           =   4.4995700649057E-06
(PID.TID 0000.0001) %MON dynstat_salt_max             =   3.4700000000000E+01
(PID.TID 0000.0001) %MON dynstat_salt_min             =   3.4000000000000E+01
(PID.TID 0000.0001) %MON dynstat_salt_mean            =   3.4499001866074E+01
(PID.TID 0000.0001) %MON dynstat_salt_sd              =   2.7623629499330E-01
(PID.TID 0000.0001) %MON dynstat_salt_del2            =   1.7810589629884E-06
(PID.TID 0000.0001) %MON advcfl_uvel_max              =   4.3290068825260E-03
(PID.TID 0000.0001) %MON advcfl_vvel_max              =   3.0591356003647E-03
(PID.TID 0000.0001) %MON advcfl_wvel_max              =   8.1703869216006E-03
(PID.TID 0000.0001) %MON advcfl_W_hf_max              =   8.1703869216006E-03
(PID.TID 0000.0001) %MON pe_b_mean                    =  -8.2959556787009E-01
(PID.TID 0000.0001) %MON ke_max                       =   7.4296879245511E-04
(PID.TID 0000.0001) %MON ke_mean                      =   9.9722827821022E-07
(PID.TID 0000.0001) %MON ke_vol                       =   4.2724688935205E+12
(PID.TID 0000.0001) // =======================================================
(PID.TID 0000.0001) // End MONITOR dynamic field statistics
(PID.TID 0000.0001) // =======================================================
(PID.TID 0000.0001) // =======================================================
(PID.TID 0000.0001) // Begin OBCS MONITOR field statistics
(PID.TID 0000.0001) // =======================================================
(PID.TID 0000.0001) %MON obc_N_vVel_max               =   1.4969687515970E-05
(PID.TID 0000.0001) %MON obc_N_vVel_min               =   1.4969687515969E-05
(PID.TID 0000.0001) %MON obc_N_vVel_mean              =   1.4969687515969E-05
(PID.TID 0000.0001) %MON obc_N_vVel_sd                =   3.6521620141250E-12
(PID.TID 0000.0001) %MON obc_N_vVel_Int               =   9.8799937605397E+02
(PID.TID 0000.0001) // =======================================================
(PID.TID 0000.0001) // End OBCS MONITOR field statistics
(PID.TID 0000.0001) // =======================================================
 cg2d: Sum(rhs),rhsMax =   4.50711088213513E+00  2.99953762612134E+02
(PID.TID 0000.0001)      cg2d_init_res =   9.26515767703420E-06
(PID.TID 0000.0001)      cg2d_iters(min,last) =      -1      83
(PID.TID 0000.0001)      cg2d_last_res =   9.96331908093560E-12
(PID.TID 0000.0001) // =======================================================
(PID.TID 0000.0001) // Begin MONITOR dynamic field statistics
(PID.TID 0000.0001) // =======================================================
(PID.TID 0000.0001) %MON time_tsnumber                =                  1308
(PID.TID 0000.0001) %MON time_secondsf                =   1.3080000000000E+05
(PID.TID 0000.0001) %MON dynstat_eta_max              =   5.7980414556199E+00
(PID.TID 0000.0001) %MON dynstat_eta_min              =  -1.4189053004987E+01
(PID.TID 0000.0001) %MON dynstat_eta_mean             =  -2.5035645696417E+00
(PID.TID 0000.0001) %MON dynstat_eta_sd               =   4.9498600527838E+00
(PID.TID 0000.0001) %MON dynstat_eta_del2             =   2.0716095082451E-01
(PID.TID 0000.0001) %MON dynstat_uvel_max             =   9.4167722006979E-03
(PID.TID 0000.0001) %MON dynstat_uvel_min             =  -4.3391090206916E-02
(PID.TID 0000.0001) %MON dynstat_uvel_mean            =  -1.1079433816158E-07
(PID.TID 0000.0001) %MON dynstat_uvel_sd              =   1.2501036463572E-03
(PID.TID 0000.0001) %MON dynstat_uvel_del2            =   1.8559768964835E-06
(PID.TID 0000.0001) %MON dynstat_vvel_max             =   3.0642218476648E-02
(PID.TID 0000.0001) %MON dynstat_vvel_min             =  -1.4378631422097E-02
(PID.TID 0000.0001) %MON dynstat_vvel_mean            =   1.5298313088638E-05
(PID.TID 0000.0001) %MON dynstat_vvel_sd              =   6.8644561857104E-04
(PID.TID 0000.0001) %MON dynstat_vvel_del2            =   1.4119198207071E-06
(PID.TID 0000.0001) %MON dynstat_wvel_max             =   1.6372146727981E-03
(PID.TID 0000.0001) %MON dynstat_wvel_min             =  -1.5749362500230E-03
(PID.TID 0000.0001) %MON dynstat_wvel_mean            =   7.4380319027728E-09
(PID.TID 0000.0001) %MON dynstat_wvel_sd              =   2.6348959293379E-05
(PID.TID 0000.0001) %MON dynstat_wvel_del2            =   1.0760280225946E-07
(PID.TID 0000.0001) %MON dynstat_theta_max            =   1.2000000000000E+00
(PID.TID 0000.0001) %MON dynstat_theta_min            =  -1.0000000000000E+00
(PID.TID 0000.0001) %MON dynstat_theta_mean           =   5.6846806412346E-01
(PID.TID 0000.0001) %MON dynstat_theta_sd             =   8.6824105136807E-01
(PID.TID 0000.0001) %MON dynstat_theta_del2           =   4.5083721735826E-06
(PID.TID 0000.0001) %MON dynstat_salt_max             =   3.4700000000000E+01
(PID.TID 0000.0001) %MON dynstat_salt_min             =   3.4000000000000E+01
(PID.TID 0000.0001) %MON dynstat_salt_mean            =   3.4499001340934E+01
(PID.TID 0000.0001) %MON dynstat_salt_sd              =   2.7623602527734E-01
(PID.TID 0000.0001) %MON dynstat_salt_del2            =   1.7845660550814E-06
(PID.TID 0000.0001) %MON advcfl_uvel_max              =   4.3391090206916E-03
(PID.TID 0000.0001) %MON advcfl_vvel_max              =   3.0642218476648E-03
(PID.TID 0000.0001) %MON advcfl_wvel_max              =   8.1860733639907E-03
(PID.TID 0000.0001) %MON advcfl_W_hf_max              =   8.1860733639907E-03
(PID.TID 0000.0001) %MON pe_b_mean                    =  -8.2959664994119E-01
(PID.TID 0000.0001) %MON ke_max                       =   7.4676690394370E-04
(PID.TID 0000.0001) %MON ke_mean                      =   1.0015985329584E-06
(PID.TID 0000.0001) %MON ke_vol                       =   4.2724688599741E+12
(PID.TID 0000.0001) // =======================================================
(PID.TID 0000.0001) // End MONITOR dynamic field statistics
(PID.TID 0000.0001) // =======================================================
(PID.TID 0000.0001) // =======================================================
(PID.TID 0000.0001) // Begin OBCS MONITOR field statistics
(PID.TID 0000.0001) // =======================================================
(PID.TID 0000.0001) %MON obc_N_vVel_max               =   1.4982720775482E-05
(PID.TID 0000.0001) %MON obc_N_vVel_min               =   1.4982720775481E-05
(PID.TID 0000.0001) %MON obc_N_vVel_mean              =   1.4982720775481E-05
(PID.TID 0000.0001) %MON obc_N_vVel_sd                =   2.8850485115185E-12
(PID.TID 0000.0001) %MON obc_N_vVel_Int               =   9.8885957118176E+02
(PID.TID 0000.0001) // =======================================================
(PID.TID 0000.0001) // End OBCS MONITOR field statistics
(PID.TID 0000.0001) // =======================================================
 cg2d: Sum(rhs),rhsMax =   4.50711987976234E+00  2.99953838979953E+02
(PID.TID 0000.0001)      cg2d_init_res =   9.27338962405682E-06
(PID.TID 0000.0001)      cg2d_iters(min,last) =      -1      83
(PID.TID 0000.0001)      cg2d_last_res =   9.96089405587785E-12
(PID.TID 0000.0001) // =======================================================
(PID.TID 0000.0001) // Begin MONITOR dynamic field statistics
(PID.TID 0000.0001) // =======================================================
(PID.TID 0000.0001) %MON time_tsnumber                =                  1309
(PID.TID 0000.0001) %MON time_secondsf                =   1.3090000000000E+05
(PID.TID 0000.0001) %MON dynstat_eta_max              =   5.7980593956462E+00
(PID.TID 0000.0001) %MON dynstat_eta_min              =  -1.4189082778519E+01
(PID.TID 0000.0001) %MON dynstat_eta_mean             =  -2.5035702049585E+00
(PID.TID 0000.0001) %MON dynstat_eta_sd               =   4.9498623950550E+00
(PID.TID 0000.0001) %MON dynstat_eta_del2             =   2.0716099598171E-01
(PID.TID 0000.0001) %MON dynstat_uvel_max             =   9.4372393484754E-03
(PID.TID 0000.0001) %MON dynstat_uvel_min             =  -4.3492248658682E-02
(PID.TID 0000.0001) %MON dynstat_uvel_mean            =  -1.1064274926822E-07
(PID.TID 0000.0001) %MON dynstat_uvel_sd              =   1.2529416624619E-03
(PID.TID 0000.0001) %MON dynstat_uvel_del2            =   1.8604736553153E-06
(PID.TID 0000.0001) %MON dynstat_vvel_max             =   3.0693080493031E-02
(PID.TID 0000.0001) %MON dynstat_vvel_min             =  -1.4414708134391E-02
(PID.TID 0000.0001) %MON dynstat_vvel_mean            =   1.5308665019080E-05
(PID.TID 0000.0001) %MON dynstat_vvel_sd              =   6.8776500110985E-04
(PID.TID 0000.0001) %MON dynstat_vvel_del2            =   1.4147570250100E-06
(PID.TID 0000.0001) %MON dynstat_wvel_max             =   1.6403532885986E-03
(PID.TID 0000.0001) %MON dynstat_wvel_min             =  -1.5780296323157E-03
(PID.TID 0000.0001) %MON dynstat_wvel_mean            =   7.4297337318638E-09
(PID.TID 0000.0001) %MON dynstat_wvel_sd              =   2.6385732718314E-05
(PID.TID 0000.0001) %MON dynstat_wvel_del2            =   1.0771183164299E-07
(PID.TID 0000.0001) %MON dynstat_theta_max            =   1.2000000000000E+00
(PID.TID 0000.0001) %MON dynstat_theta_min            =  -1.0000000000000E+00
(PID.TID 0000.0001) %MON dynstat_theta_mean           =   5.6846675028903E-01
(PID.TID 0000.0001) %MON dynstat_theta_sd             =   8.6824034791103E-01
(PID.TID 0000.0001) %MON dynstat_theta_del2           =   4.5171929855715E-06
(PID.TID 0000.0001) %MON dynstat_salt_max             =   3.4700000000000E+01
(PID.TID 0000.0001) %MON dynstat_salt_min             =   3.4000000000000E+01
(PID.TID 0000.0001) %MON dynstat_salt_mean            =   3.4499000814893E+01
(PID.TID 0000.0001) %MON dynstat_salt_sd              =   2.7623575512523E-01
(PID.TID 0000.0001) %MON dynstat_salt_del2            =   1.7880800626444E-06
(PID.TID 0000.0001) %MON advcfl_uvel_max              =   4.3492248658682E-03
(PID.TID 0000.0001) %MON advcfl_vvel_max              =   3.0693080493031E-03
(PID.TID 0000.0001) %MON advcfl_wvel_max              =   8.2017664429930E-03
(PID.TID 0000.0001) %MON advcfl_W_hf_max              =   8.2017664429930E-03
(PID.TID 0000.0001) %MON pe_b_mean                    =  -8.2959772765217E-01
(PID.TID 0000.0001) %MON ke_max                       =   7.5058108495968E-04
(PID.TID 0000.0001) %MON ke_mean                      =   1.0059866397188E-06
(PID.TID 0000.0001) %MON ke_vol                       =   4.2724688264563E+12
(PID.TID 0000.0001) // =======================================================
(PID.TID 0000.0001) // End MONITOR dynamic field statistics
(PID.TID 0000.0001) // =======================================================
(PID.TID 0000.0001) // =======================================================
(PID.TID 0000.0001) // Begin OBCS MONITOR field statistics
(PID.TID 0000.0001) // =======================================================
(PID.TID 0000.0001) %MON obc_N_vVel_max               =   1.4993429273644E-05
(PID.TID 0000.0001) %MON obc_N_vVel_min               =   1.4993429273644E-05
(PID.TID 0000.0001) %MON obc_N_vVel_mean              =   1.4993429273644E-05
(PID.TID 0000.0001) %MON obc_N_vVel_sd                =   7.0081273440439E-13
(PID.TID 0000.0001) %MON obc_N_vVel_Int               =   9.8956633206051E+02
(PID.TID 0000.0001) // =======================================================
(PID.TID 0000.0001) // End OBCS MONITOR field statistics
(PID.TID 0000.0001) // =======================================================
 cg2d: Sum(rhs),rhsMax =   4.50712886116624E+00  2.99953915202282E+02
(PID.TID 0000.0001)      cg2d_init_res =   9.28009014823353E-06
(PID.TID 0000.0001)      cg2d_iters(min,last) =      -1      83
(PID.TID 0000.0001)      cg2d_last_res =   9.95750477883113E-12
(PID.TID 0000.0001) // =======================================================
(PID.TID 0000.0001) // Begin MONITOR dynamic field statistics
(PID.TID 0000.0001) // =======================================================
(PID.TID 0000.0001) %MON time_tsnumber                =                  1310
(PID.TID 0000.0001) %MON time_secondsf                =   1.3100000000000E+05
(PID.TID 0000.0001) %MON dynstat_eta_max              =   5.7980774075481E+00
(PID.TID 0000.0001) %MON dynstat_eta_min              =  -1.4189112558433E+01
(PID.TID 0000.0001) %MON dynstat_eta_mean             =  -2.5035758300519E+00
(PID.TID 0000.0001) %MON dynstat_eta_sd               =   4.9498647323375E+00
(PID.TID 0000.0001) %MON dynstat_eta_del2             =   2.0716104120311E-01
(PID.TID 0000.0001) %MON dynstat_uvel_max             =   9.4577404989984E-03
(PID.TID 0000.0001) %MON dynstat_uvel_min             =  -4.3593544138138E-02
(PID.TID 0000.0001) %MON dynstat_uvel_mean            =  -1.1048263432433E-07
(PID.TID 0000.0001) %MON dynstat_uvel_sd              =   1.2557854130348E-03
(PID.TID 0000.0001) %MON dynstat_uvel_del2            =   1.8649814483112E-06
(PID.TID 0000.0001) %MON dynstat_vvel_max             =   3.0743941761579E-02
(PID.TID 0000.0001) %MON dynstat_vvel_min             =  -1.4450864774686E-02
(PID.TID 0000.0001) %MON dynstat_vvel_mean            =   1.5316068751318E-05
(PID.TID 0000.0001) %MON dynstat_vvel_sd              =   6.8908632904779E-04
(PID.TID 0000.0001) %MON dynstat_vvel_del2            =   1.4175986544111E-06
(PID.TID 0000.0001) %MON dynstat_wvel_max             =   1.6434932146276E-03
(PID.TID 0000.0001) %MON dynstat_wvel_min             =  -1.5811250608145E-03
(PID.TID 0000.0001) %MON dynstat_wvel_mean            =   7.4167449757233E-09
(PID.TID 0000.0001) %MON dynstat_wvel_sd              =   2.6422023522371E-05
(PID.TID 0000.0001) %MON dynstat_wvel_del2            =   1.0781835233558E-07
(PID.TID 0000.0001) %MON dynstat_theta_max            =   1.2000000000000E+00
(PID.TID 0000.0001) %MON dynstat_theta_min            =  -1.0000000000000E+00
(PID.TID 0000.0001) %MON dynstat_theta_mean           =   5.6846543421316E-01
(PID.TID 0000.0001) %MON dynstat_theta_sd             =   8.6823964329422E-01
(PID.TID 0000.0001) %MON dynstat_theta_del2           =   4.5260316968713E-06
(PID.TID 0000.0001) %MON dynstat_salt_max             =   3.4700000000000E+01
(PID.TID 0000.0001) %MON dynstat_salt_min             =   3.4000000000000E+01
(PID.TID 0000.0001) %MON dynstat_salt_mean            =   3.4499000287949E+01
(PID.TID 0000.0001) %MON dynstat_salt_sd              =   2.7623548453709E-01
(PID.TID 0000.0001) %MON dynstat_salt_del2            =   1.7916008154653E-06
(PID.TID 0000.0001) %MON advcfl_uvel_max              =   4.3593544138138E-03
(PID.TID 0000.0001) %MON advcfl_vvel_max              =   3.0743941761579E-03
(PID.TID 0000.0001) %MON advcfl_wvel_max              =   8.2174660731382E-03
(PID.TID 0000.0001) %MON advcfl_W_hf_max              =   8.2174660731382E-03
(PID.TID 0000.0001) %MON pe_b_mean                    =  -8.2959880023268E-01
(PID.TID 0000.0001) %MON ke_max                       =   7.5441137610580E-04
(PID.TID 0000.0001) %MON ke_mean                      =   1.0103927361111E-06
(PID.TID 0000.0001) %MON ke_vol                       =   4.2724687929825E+12
(PID.TID 0000.0001) // =======================================================
(PID.TID 0000.0001) // End MONITOR dynamic field statistics
(PID.TID 0000.0001) // =======================================================
(PID.TID 0000.0001) // =======================================================
(PID.TID 0000.0001) // Begin OBCS MONITOR field statistics
(PID.TID 0000.0001) // =======================================================
(PID.TID 0000.0001) %MON obc_N_vVel_max               =   1.5001643707993E-05
(PID.TID 0000.0001) %MON obc_N_vVel_min               =   1.5001643707992E-05
(PID.TID 0000.0001) %MON obc_N_vVel_mean              =   1.5001643707993E-05
(PID.TID 0000.0001) %MON obc_N_vVel_sd                =   8.9517105539151E-13
(PID.TID 0000.0001) %MON obc_N_vVel_Int               =   9.9010848472751E+02
(PID.TID 0000.0001) // =======================================================
(PID.TID 0000.0001) // End OBCS MONITOR field statistics
(PID.TID 0000.0001) // =======================================================
 cg2d: Sum(rhs),rhsMax =   4.50713782151899E+00  2.99953991247945E+02
(PID.TID 0000.0001)      cg2d_init_res =   9.28552129197203E-06
(PID.TID 0000.0001)      cg2d_iters(min,last) =      -1      83
(PID.TID 0000.0001)      cg2d_last_res =   9.95357213059582E-12
(PID.TID 0000.0001) // =======================================================
(PID.TID 0000.0001) // Begin MONITOR dynamic field statistics
(PID.TID 0000.0001) // =======================================================
(PID.TID 0000.0001) %MON time_tsnumber                =                  1311
(PID.TID 0000.0001) %MON time_secondsf                =   1.3110000000000E+05
(PID.TID 0000.0001) %MON dynstat_eta_max              =   5.7980954973427E+00
(PID.TID 0000.0001) %MON dynstat_eta_min              =  -1.4189142341882E+01
(PID.TID 0000.0001) %MON dynstat_eta_mean             =  -2.5035814419800E+00
(PID.TID 0000.0001) %MON dynstat_eta_sd               =   4.9498670635954E+00
(PID.TID 0000.0001) %MON dynstat_eta_del2             =   2.0716108648815E-01
(PID.TID 0000.0001) %MON dynstat_uvel_max             =   9.4782756737430E-03
(PID.TID 0000.0001) %MON dynstat_uvel_min             =  -4.3694976604031E-02
(PID.TID 0000.0001) %MON dynstat_uvel_mean            =  -1.1031708161184E-07
(PID.TID 0000.0001) %MON dynstat_uvel_sd              =   1.2586349057128E-03
(PID.TID 0000.0001) %MON dynstat_uvel_del2            =   1.8695003002899E-06
(PID.TID 0000.0001) %MON dynstat_vvel_max             =   3.0794802002212E-02
(PID.TID 0000.0001) %MON dynstat_vvel_min             =  -1.4487101497677E-02
(PID.TID 0000.0001) %MON dynstat_vvel_mean            =   1.5320421764949E-05
(PID.TID 0000.0001) %MON dynstat_vvel_sd              =   6.9040971710500E-04
(PID.TID 0000.0001) %MON dynstat_vvel_del2            =   1.4204459820652E-06
(PID.TID 0000.0001) %MON dynstat_wvel_max             =   1.6466344336960E-03
(PID.TID 0000.0001) %MON dynstat_wvel_min             =  -1.5842225194174E-03
(PID.TID 0000.0001) %MON dynstat_wvel_mean            =   7.3993593289905E-09
(PID.TID 0000.0001) %MON dynstat_wvel_sd              =   2.6458615019363E-05
(PID.TID 0000.0001) %MON dynstat_wvel_del2            =   1.0792754434262E-07
(PID.TID 0000.0001) %MON dynstat_theta_max            =   1.2000000000000E+00
(PID.TID 0000.0001) %MON dynstat_theta_min            =  -1.0000000000000E+00
(PID.TID 0000.0001) %MON dynstat_theta_mean           =   5.6846411589005E-01
(PID.TID 0000.0001) %MON dynstat_theta_sd             =   8.6823893751620E-01
(PID.TID 0000.0001) %MON dynstat_theta_del2           =   4.5348874250714E-06
(PID.TID 0000.0001) %MON dynstat_salt_max             =   3.4700000000000E+01
(PID.TID 0000.0001) %MON dynstat_salt_min             =   3.4000000000000E+01
(PID.TID 0000.0001) %MON dynstat_salt_mean            =   3.4498999760098E+01
(PID.TID 0000.0001) %MON dynstat_salt_sd              =   2.7623521351239E-01
(PID.TID 0000.0001) %MON dynstat_salt_del2            =   1.7951281173786E-06
(PID.TID 0000.0001) %MON advcfl_uvel_max              =   4.3694976604031E-03
(PID.TID 0000.0001) %MON advcfl_vvel_max              =   3.0794802002212E-03
(PID.TID 0000.0001) %MON advcfl_wvel_max              =   8.2331721684799E-03
(PID.TID 0000.0001) %MON advcfl_W_hf_max              =   8.2331721684799E-03
(PID.TID 0000.0001) %MON pe_b_mean                    =  -8.2959986689204E-01
(PID.TID 0000.0001) %MON ke_max                       =   7.5825781807642E-04
(PID.TID 0000.0001) %MON ke_mean                      =   1.0148169647966E-06
(PID.TID 0000.0001) %MON ke_vol                       =   4.2724687595695E+12
(PID.TID 0000.0001) // =======================================================
(PID.TID 0000.0001) // End MONITOR dynamic field statistics
(PID.TID 0000.0001) // =======================================================
(PID.TID 0000.0001) // =======================================================
(PID.TID 0000.0001) // Begin OBCS MONITOR field statistics
(PID.TID 0000.0001) // =======================================================
(PID.TID 0000.0001) %MON obc_N_vVel_max               =   1.5007241522208E-05
(PID.TID 0000.0001) %MON obc_N_vVel_min               =   1.5007241522208E-05
(PID.TID 0000.0001) %MON obc_N_vVel_mean              =   1.5007241522208E-05
(PID.TID 0000.0001) %MON obc_N_vVel_sd                =   4.5870913258641E-12
(PID.TID 0000.0001) %MON obc_N_vVel_Int               =   9.9047794046571E+02
(PID.TID 0000.0001) // =======================================================
(PID.TID 0000.0001) // End OBCS MONITOR field statistics
(PID.TID 0000.0001) // =======================================================
 cg2d: Sum(rhs),rhsMax =   4.50714675579641E+00  2.99954067088954E+02
(PID.TID 0000.0001)      cg2d_init_res =   9.28984155665891E-06
(PID.TID 0000.0001)      cg2d_iters(min,last) =      -1      83
(PID.TID 0000.0001)      cg2d_last_res =   9.94931570838733E-12
(PID.TID 0000.0001) // =======================================================
(PID.TID 0000.0001) // Begin MONITOR dynamic field statistics
(PID.TID 0000.0001) // =======================================================
(PID.TID 0000.0001) %MON time_tsnumber                =                  1312
(PID.TID 0000.0001) %MON time_secondsf                =   1.3120000000000E+05
(PID.TID 0000.0001) %MON dynstat_eta_max              =   5.7981136710978E+00
(PID.TID 0000.0001) %MON dynstat_eta_min              =  -1.4189172125998E+01
(PID.TID 0000.0001) %MON dynstat_eta_mean             =  -2.5035870377184E+00
(PID.TID 0000.0001) %MON dynstat_eta_sd               =   4.9498693878121E+00
(PID.TID 0000.0001) %MON dynstat_eta_del2             =   2.0716113183628E-01
(PID.TID 0000.0001) %MON dynstat_uvel_max             =   9.4988448910733E-03
(PID.TID 0000.0001) %MON dynstat_uvel_min             =  -4.3796546016482E-02
(PID.TID 0000.0001) %MON dynstat_uvel_mean            =  -1.1014918903758E-07
(PID.TID 0000.0001) %MON dynstat_uvel_sd              =   1.2614901481457E-03
(PID.TID 0000.0001) %MON dynstat_uvel_del2            =   1.8740302364743E-06
(PID.TID 0000.0001) %MON dynstat_vvel_max             =   3.0845660946315E-02
(PID.TID 0000.0001) %MON dynstat_vvel_min             =  -1.4523418445950E-02
(PID.TID 0000.0001) %MON dynstat_vvel_mean            =   1.5321678024910E-05
(PID.TID 0000.0001) %MON dynstat_vvel_sd              =   6.9173527647699E-04
(PID.TID 0000.0001) %MON dynstat_vvel_del2            =   1.4233001623544E-06
(PID.TID 0000.0001) %MON dynstat_wvel_max             =   1.6497769285127E-03
(PID.TID 0000.0001) %MON dynstat_wvel_min             =  -1.5873219926939E-03
(PID.TID 0000.0001) %MON dynstat_wvel_mean            =   7.3779497047390E-09
(PID.TID 0000.0001) %MON dynstat_wvel_sd              =   2.6496227744693E-05
(PID.TID 0000.0001) %MON dynstat_wvel_del2            =   1.0804430566655E-07
(PID.TID 0000.0001) %MON dynstat_theta_max            =   1.2000000000000E+00
(PID.TID 0000.0001) %MON dynstat_theta_min            =  -1.0000000000000E+00
(PID.TID 0000.0001) %MON dynstat_theta_mean           =   5.6846279531368E-01
(PID.TID 0000.0001) %MON dynstat_theta_sd             =   8.6823823057699E-01
(PID.TID 0000.0001) %MON dynstat_theta_del2           =   4.5437593388882E-06
(PID.TID 0000.0001) %MON dynstat_salt_max             =   3.4700000000000E+01
(PID.TID 0000.0001) %MON dynstat_salt_min             =   3.4000000000000E+01
(PID.TID 0000.0001) %MON dynstat_salt_mean            =   3.4498999231341E+01
(PID.TID 0000.0001) %MON dynstat_salt_sd              =   2.7623494205118E-01
(PID.TID 0000.0001) %MON dynstat_salt_del2            =   1.7986620075544E-06
(PID.TID 0000.0001) %MON advcfl_uvel_max              =   4.3796546016482E-03
(PID.TID 0000.0001) %MON advcfl_vvel_max              =   3.0845660946315E-03
(PID.TID 0000.0001) %MON advcfl_wvel_max              =   8.2488846425635E-03
(PID.TID 0000.0001) %MON advcfl_W_hf_max              =   8.2488846425635E-03
(PID.TID 0000.0001) %MON pe_b_mean                    =  -8.2960092683186E-01
(PID.TID 0000.0001) %MON ke_max                       =   7.6212045165701E-04
(PID.TID 0000.0001) %MON ke_mean                      =   1.0192594677025E-06
(PID.TID 0000.0001) %MON ke_vol                       =   4.2724687262346E+12
(PID.TID 0000.0001) // =======================================================
(PID.TID 0000.0001) // End MONITOR dynamic field statistics
(PID.TID 0000.0001) // =======================================================
(PID.TID 0000.0001) // =======================================================
(PID.TID 0000.0001) // Begin OBCS MONITOR field statistics
(PID.TID 0000.0001) // =======================================================
(PID.TID 0000.0001) %MON obc_N_vVel_max               =   1.5010148831101E-05
(PID.TID 0000.0001) %MON obc_N_vVel_min               =   1.5010148831101E-05
(PID.TID 0000.0001) %MON obc_N_vVel_mean              =   1.5010148831101E-05
(PID.TID 0000.0001) %MON obc_N_vVel_sd                =   3.1751005835233E-12
(PID.TID 0000.0001) %MON obc_N_vVel_Int               =   9.9066982285266E+02
(PID.TID 0000.0001) // =======================================================
(PID.TID 0000.0001) // End OBCS MONITOR field statistics
(PID.TID 0000.0001) // =======================================================
 cg2d: Sum(rhs),rhsMax =   4.50715565886754E+00  2.99954142701084E+02
(PID.TID 0000.0001)      cg2d_init_res =   9.29325570402461E-06
(PID.TID 0000.0001)      cg2d_iters(min,last) =      -1      83
(PID.TID 0000.0001)      cg2d_last_res =   9.94495997487794E-12
(PID.TID 0000.0001) // =======================================================
(PID.TID 0000.0001) // Begin MONITOR dynamic field statistics
(PID.TID 0000.0001) // =======================================================
(PID.TID 0000.0001) %MON time_tsnumber                =                  1313
(PID.TID 0000.0001) %MON time_secondsf                =   1.3130000000000E+05
(PID.TID 0000.0001) %MON dynstat_eta_max              =   5.7981319348164E+00
(PID.TID 0000.0001) %MON dynstat_eta_min              =  -1.4189201907964E+01
(PID.TID 0000.0001) %MON dynstat_eta_mean             =  -2.5035926142147E+00
(PID.TID 0000.0001) %MON dynstat_eta_sd               =   4.9498717040141E+00
(PID.TID 0000.0001) %MON dynstat_eta_del2             =   2.0716117724752E-01
(PID.TID 0000.0001) %MON dynstat_uvel_max             =   9.5194481644327E-03
(PID.TID 0000.0001) %MON dynstat_uvel_min             =  -4.3898252336373E-02
(PID.TID 0000.0001) %MON dynstat_uvel_mean            =  -1.0998198830610E-07
(PID.TID 0000.0001) %MON dynstat_uvel_sd              =   1.2643511479850E-03
(PID.TID 0000.0001) %MON dynstat_uvel_del2            =   1.8785712832751E-06
(PID.TID 0000.0001) %MON dynstat_vvel_max             =   3.0896518336819E-02
(PID.TID 0000.0001) %MON dynstat_vvel_min             =  -1.4559815750243E-02
(PID.TID 0000.0001) %MON dynstat_vvel_mean            =   1.5319848458737E-05
(PID.TID 0000.0001) %MON dynstat_vvel_sd              =   6.9306310719809E-04
(PID.TID 0000.0001) %MON dynstat_vvel_del2            =   1.4261621499126E-06
(PID.TID 0000.0001) %MON dynstat_wvel_max             =   1.6529206816901E-03
(PID.TID 0000.0001) %MON dynstat_wvel_min             =  -1.5904234656996E-03
(PID.TID 0000.0001) %MON dynstat_wvel_mean            =   7.3529599975330E-09
(PID.TID 0000.0001) %MON dynstat_wvel_sd              =   2.6535464059135E-05
(PID.TID 0000.0001) %MON dynstat_wvel_del2            =   1.0817287591481E-07
(PID.TID 0000.0001) %MON dynstat_theta_max            =   1.2000000000000E+00
(PID.TID 0000.0001) %MON dynstat_theta_min            =  -1.0000000000000E+00
(PID.TID 0000.0001) %MON dynstat_theta_mean           =   5.6846147247769E-01
(PID.TID 0000.0001) %MON dynstat_theta_sd             =   8.6823752247634E-01
(PID.TID 0000.0001) %MON dynstat_theta_del2           =   4.5526468018912E-06
(PID.TID 0000.0001) %MON dynstat_salt_max             =   3.4700000000000E+01
(PID.TID 0000.0001) %MON dynstat_salt_min             =   3.4000000000000E+01
(PID.TID 0000.0001) %MON dynstat_salt_mean            =   3.4498998701672E+01
(PID.TID 0000.0001) %MON dynstat_salt_sd              =   2.7623467015349E-01
(PID.TID 0000.0001) %MON dynstat_salt_del2            =   1.8022022235538E-06
(PID.TID 0000.0001) %MON advcfl_uvel_max              =   4.3898252336373E-03
(PID.TID 0000.0001) %MON advcfl_vvel_max              =   3.0896518336819E-03
(PID.TID 0000.0001) %MON advcfl_wvel_max              =   8.2646034084503E-03
(PID.TID 0000.0001) %MON advcfl_W_hf_max              =   8.2646034084503E-03
(PID.TID 0000.0001) %MON pe_b_mean                    =  -8.2960197926056E-01
(PID.TID 0000.0001) %MON ke_max                       =   7.6599931770746E-04
(PID.TID 0000.0001) %MON ke_mean                      =   1.0237203807039E-06
(PID.TID 0000.0001) %MON ke_vol                       =   4.2724686929960E+12
(PID.TID 0000.0001) // =======================================================
(PID.TID 0000.0001) // End MONITOR dynamic field statistics
(PID.TID 0000.0001) // =======================================================
(PID.TID 0000.0001) // =======================================================
(PID.TID 0000.0001) // Begin OBCS MONITOR field statistics
(PID.TID 0000.0001) // =======================================================
(PID.TID 0000.0001) %MON obc_N_vVel_max               =   1.5010341460760E-05
(PID.TID 0000.0001) %MON obc_N_vVel_min               =   1.5010341460760E-05
(PID.TID 0000.0001) %MON obc_N_vVel_mean              =   1.5010341460760E-05
(PID.TID 0000.0001) %MON obc_N_vVel_sd                =  -6.7208424769933E-25
(PID.TID 0000.0001) %MON obc_N_vVel_Int               =   9.9068253641016E+02
(PID.TID 0000.0001) // =======================================================
(PID.TID 0000.0001) // End OBCS MONITOR field statistics
(PID.TID 0000.0001) // =======================================================
 cg2d: Sum(rhs),rhsMax =   4.50716452559038E+00  2.99954218064302E+02
(PID.TID 0000.0001)      cg2d_init_res =   9.29590919366890E-06
(PID.TID 0000.0001)      cg2d_iters(min,last) =      -1      83
(PID.TID 0000.0001)      cg2d_last_res =   9.94083094841545E-12
(PID.TID 0000.0001) // =======================================================
(PID.TID 0000.0001) // Begin MONITOR dynamic field statistics
(PID.TID 0000.0001) // =======================================================
(PID.TID 0000.0001) %MON time_tsnumber                =                  1314
(PID.TID 0000.0001) %MON time_secondsf                =   1.3140000000000E+05
(PID.TID 0000.0001) %MON dynstat_eta_max              =   5.7981502943462E+00
(PID.TID 0000.0001) %MON dynstat_eta_min              =  -1.4189231685051E+01
(PID.TID 0000.0001) %MON dynstat_eta_mean             =  -2.5035981684456E+00
(PID.TID 0000.0001) %MON dynstat_eta_sd               =   4.9498740112750E+00
(PID.TID 0000.0001) %MON dynstat_eta_del2             =   2.0716122272128E-01
(PID.TID 0000.0001) %MON dynstat_uvel_max             =   9.5400855018646E-03
(PID.TID 0000.0001) %MON dynstat_uvel_min             =  -4.4000095524960E-02
(PID.TID 0000.0001) %MON dynstat_uvel_mean            =  -1.0981836222610E-07
(PID.TID 0000.0001) %MON dynstat_uvel_sd              =   1.2672179129252E-03
(PID.TID 0000.0001) %MON dynstat_uvel_del2            =   1.8831234674714E-06
(PID.TID 0000.0001) %MON dynstat_vvel_max             =   3.0947373928090E-02
(PID.TID 0000.0001) %MON dynstat_vvel_min             =  -1.4596293529371E-02
(PID.TID 0000.0001) %MON dynstat_vvel_mean            =   1.5315000416235E-05
(PID.TID 0000.0001) %MON dynstat_vvel_sd              =   6.9439329200051E-04
(PID.TID 0000.0001) %MON dynstat_vvel_del2            =   1.4290326325329E-06
(PID.TID 0000.0001) %MON dynstat_wvel_max             =   1.6560656757336E-03
(PID.TID 0000.0001) %MON dynstat_wvel_min             =  -1.5935269240387E-03
(PID.TID 0000.0001) %MON dynstat_wvel_mean            =   7.3248982992581E-09
(PID.TID 0000.0001) %MON dynstat_wvel_sd              =   2.6576762649783E-05
(PID.TID 0000.0001) %MON dynstat_wvel_del2            =   1.0831651447825E-07
(PID.TID 0000.0001) %MON dynstat_theta_max            =   1.2000000000000E+00
(PID.TID 0000.0001) %MON dynstat_theta_min            =  -1.0000000000000E+00
(PID.TID 0000.0001) %MON dynstat_theta_mean           =   5.6846014737561E-01
(PID.TID 0000.0001) %MON dynstat_theta_sd             =   8.6823681321328E-01
(PID.TID 0000.0001) %MON dynstat_theta_del2           =   4.5615493876549E-06
(PID.TID 0000.0001) %MON dynstat_salt_max             =   3.4700000000000E+01
(PID.TID 0000.0001) %MON dynstat_salt_min             =   3.4000000000000E+01
(PID.TID 0000.0001) %MON dynstat_salt_mean            =   3.4498998171092E+01
(PID.TID 0000.0001) %MON dynstat_salt_sd              =   2.7623439781876E-01
(PID.TID 0000.0001) %MON dynstat_salt_del2            =   1.8057485858695E-06
(PID.TID 0000.0001) %MON advcfl_uvel_max              =   4.4000095524960E-03
(PID.TID 0000.0001) %MON advcfl_vvel_max              =   3.0947373928090E-03
(PID.TID 0000.0001) %MON advcfl_wvel_max              =   8.2803283786682E-03
(PID.TID 0000.0001) %MON advcfl_W_hf_max              =   8.2803283786682E-03
(PID.TID 0000.0001) %MON pe_b_mean                    =  -8.2960302340759E-01
(PID.TID 0000.0001) %MON ke_max                       =   7.6989445714117E-04
(PID.TID 0000.0001) %MON ke_mean                      =   1.0281998293314E-06
(PID.TID 0000.0001) %MON ke_vol                       =   4.2724686598716E+12
(PID.TID 0000.0001) // =======================================================
(PID.TID 0000.0001) // End MONITOR dynamic field statistics
(PID.TID 0000.0001) // =======================================================
(PID.TID 0000.0001) // =======================================================
(PID.TID 0000.0001) // Begin OBCS MONITOR field statistics
(PID.TID 0000.0001) // =======================================================
(PID.TID 0000.0001) %MON obc_N_vVel_max               =   1.5007845059269E-05
(PID.TID 0000.0001) %MON obc_N_vVel_min               =   1.5007845059269E-05
(PID.TID 0000.0001) %MON obc_N_vVel_mean              =   1.5007845059269E-05
(PID.TID 0000.0001) %MON obc_N_vVel_sd                =  -5.1440294343141E-24
(PID.TID 0000.0001) %MON obc_N_vVel_Int               =   9.9051777391178E+02
(PID.TID 0000.0001) // =======================================================
(PID.TID 0000.0001) // End OBCS MONITOR field statistics
(PID.TID 0000.0001) // =======================================================
 cg2d: Sum(rhs),rhsMax =   4.50717335090140E+00  2.99954293163419E+02
(PID.TID 0000.0001)      cg2d_init_res =   9.29799955964590E-06
(PID.TID 0000.0001)      cg2d_iters(min,last) =      -1      83
(PID.TID 0000.0001)      cg2d_last_res =   9.93715088180639E-12
(PID.TID 0000.0001) // =======================================================
(PID.TID 0000.0001) // Begin MONITOR dynamic field statistics
(PID.TID 0000.0001) // =======================================================
(PID.TID 0000.0001) %MON time_tsnumber                =                  1315
(PID.TID 0000.0001) %MON time_secondsf                =   1.3150000000000E+05
(PID.TID 0000.0001) %MON dynstat_eta_max              =   5.7981687552642E+00
(PID.TID 0000.0001) %MON dynstat_eta_min              =  -1.4189261454700E+01
(PID.TID 0000.0001) %MON dynstat_eta_mean             =  -2.5036036974715E+00
(PID.TID 0000.0001) %MON dynstat_eta_sd               =   4.9498763087392E+00
(PID.TID 0000.0001) %MON dynstat_eta_del2             =   2.0716126825714E-01
(PID.TID 0000.0001) %MON dynstat_uvel_max             =   9.5607569070637E-03
(PID.TID 0000.0001) %MON dynstat_uvel_min             =  -4.4102075543264E-02
(PID.TID 0000.0001) %MON dynstat_uvel_mean            =  -1.0966099808756E-07
(PID.TID 0000.0001) %MON dynstat_uvel_sd              =   1.2700904507145E-03
(PID.TID 0000.0001) %MON dynstat_uvel_del2            =   1.8876868164256E-06
(PID.TID 0000.0001) %MON dynstat_vvel_max             =   3.0998227485361E-02
(PID.TID 0000.0001) %MON dynstat_vvel_min             =  -1.4632851890427E-02
(PID.TID 0000.0001) %MON dynstat_vvel_mean            =   1.5307256088403E-05
(PID.TID 0000.0001) %MON dynstat_vvel_sd              =   6.9572589196211E-04
(PID.TID 0000.0001) %MON dynstat_vvel_del2            =   1.4319119879164E-06
(PID.TID 0000.0001) %MON dynstat_wvel_max             =   1.6592118930699E-03
(PID.TID 0000.0001) %MON dynstat_wvel_min             =  -1.5966323538605E-03
(PID.TID 0000.0001) %MON dynstat_wvel_mean            =   7.2943244325857E-09
(PID.TID 0000.0001) %MON dynstat_wvel_sd              =   2.6620366390994E-05
(PID.TID 0000.0001) %MON dynstat_wvel_del2            =   1.0847725875034E-07
(PID.TID 0000.0001) %MON dynstat_theta_max            =   1.2000000000000E+00
(PID.TID 0000.0001) %MON dynstat_theta_min            =  -1.0000000000000E+00
(PID.TID 0000.0001) %MON dynstat_theta_mean           =   5.6845882000091E-01
(PID.TID 0000.0001) %MON dynstat_theta_sd             =   8.6823610278591E-01
(PID.TID 0000.0001) %MON dynstat_theta_del2           =   4.5704662162468E-06
(PID.TID 0000.0001) %MON dynstat_salt_max             =   3.4700000000000E+01
(PID.TID 0000.0001) %MON dynstat_salt_min             =   3.4000000000000E+01
(PID.TID 0000.0001) %MON dynstat_salt_mean            =   3.4498997639596E+01
(PID.TID 0000.0001) %MON dynstat_salt_sd              =   2.7623412504648E-01
(PID.TID 0000.0001) %MON dynstat_salt_del2            =   1.8093010127155E-06
(PID.TID 0000.0001) %MON advcfl_uvel_max              =   4.4102075543264E-03
(PID.TID 0000.0001) %MON advcfl_vvel_max              =   3.0998227485361E-03
(PID.TID 0000.0001) %MON advcfl_wvel_max              =   8.2960594653497E-03
(PID.TID 0000.0001) %MON advcfl_W_hf_max              =   8.2960594653497E-03
(PID.TID 0000.0001) %MON pe_b_mean                    =  -8.2960405853731E-01
(PID.TID 0000.0001) %MON ke_max                       =   7.7380591091189E-04
(PID.TID 0000.0001) %MON ke_mean                      =   1.0326979256188E-06
(PID.TID 0000.0001) %MON ke_vol                       =   4.2724686268794E+12
(PID.TID 0000.0001) // =======================================================
(PID.TID 0000.0001) // End MONITOR dynamic field statistics
(PID.TID 0000.0001) // =======================================================
(PID.TID 0000.0001) // =======================================================
(PID.TID 0000.0001) // Begin OBCS MONITOR field statistics
(PID.TID 0000.0001) // =======================================================
(PID.TID 0000.0001) %MON obc_N_vVel_max               =   1.5002734404265E-05
(PID.TID 0000.0001) %MON obc_N_vVel_min               =   1.5002734404265E-05
(PID.TID 0000.0001) %MON obc_N_vVel_mean              =   1.5002734404265E-05
(PID.TID 0000.0001) %MON obc_N_vVel_sd                =  -1.4475660719678E-23
(PID.TID 0000.0001) %MON obc_N_vVel_Int               =   9.9018047068149E+02
(PID.TID 0000.0001) // =======================================================
(PID.TID 0000.0001) // End OBCS MONITOR field statistics
(PID.TID 0000.0001) // =======================================================
 cg2d: Sum(rhs),rhsMax =   4.50718212990498E+00  2.99954367988359E+02
(PID.TID 0000.0001)      cg2d_init_res =   9.29973126742533E-06
(PID.TID 0000.0001)      cg2d_iters(min,last) =      -1      83
(PID.TID 0000.0001)      cg2d_last_res =   9.93413670907143E-12
(PID.TID 0000.0001) // =======================================================
(PID.TID 0000.0001) // Begin MONITOR dynamic field statistics
(PID.TID 0000.0001) // =======================================================
(PID.TID 0000.0001) %MON time_tsnumber                =                  1316
(PID.TID 0000.0001) %MON time_secondsf                =   1.3160000000000E+05
(PID.TID 0000.0001) %MON dynstat_eta_max              =   5.7981873227852E+00
(PID.TID 0000.0001) %MON dynstat_eta_min              =  -1.4189291214550E+01
(PID.TID 0000.0001) %MON dynstat_eta_mean             =  -2.5036091984890E+00
(PID.TID 0000.0001) %MON dynstat_eta_sd               =   4.9498785956402E+00
(PID.TID 0000.0001) %MON dynstat_eta_del2             =   2.0716131385501E-01
(PID.TID 0000.0001) %MON dynstat_uvel_max             =   9.5814623797672E-03
(PID.TID 0000.0001) %MON dynstat_uvel_min             =  -4.4204192351630E-02
(PID.TID 0000.0001) %MON dynstat_uvel_mean            =  -1.0951235104726E-07
(PID.TID 0000.0001) %MON dynstat_uvel_sd              =   1.2729687691624E-03
(PID.TID 0000.0001) %MON dynstat_uvel_del2            =   1.8922613587746E-06
(PID.TID 0000.0001) %MON dynstat_vvel_max             =   3.1049078784399E-02
(PID.TID 0000.0001) %MON dynstat_vvel_min             =  -1.4669490929508E-02
(PID.TID 0000.0001) %MON dynstat_vvel_mean            =   1.5296789906217E-05
(PID.TID 0000.0001) %MON dynstat_vvel_sd              =   6.9706094430874E-04
(PID.TID 0000.0001) %MON dynstat_vvel_del2            =   1.4348002657743E-06
(PID.TID 0000.0001) %MON dynstat_wvel_max             =   1.6623593160267E-03
(PID.TID 0000.0001) %MON dynstat_wvel_min             =  -1.5997397417935E-03
(PID.TID 0000.0001) %MON dynstat_wvel_mean            =   7.2618408304325E-09
(PID.TID 0000.0001) %MON dynstat_wvel_sd              =   2.6666305966954E-05
(PID.TID 0000.0001) %MON dynstat_wvel_del2            =   1.0865578244233E-07
(PID.TID 0000.0001) %MON dynstat_theta_max            =   1.2000000000000E+00
(PID.TID 0000.0001) %MON dynstat_theta_min            =  -1.0000000000000E+00
(PID.TID 0000.0001) %MON dynstat_theta_mean           =   5.6845749034701E-01
(PID.TID 0000.0001) %MON dynstat_theta_sd             =   8.6823539119150E-01
(PID.TID 0000.0001) %MON dynstat_theta_del2           =   4.5793981353631E-06
(PID.TID 0000.0001) %MON dynstat_salt_max             =   3.4700000000000E+01
(PID.TID 0000.0001) %MON dynstat_salt_min             =   3.4000000000000E+01
(PID.TID 0000.0001) %MON dynstat_salt_mean            =   3.4498997107182E+01
(PID.TID 0000.0001) %MON dynstat_salt_sd              =   2.7623385183593E-01
(PID.TID 0000.0001) %MON dynstat_salt_del2            =   1.8128593908195E-06
(PID.TID 0000.0001) %MON advcfl_uvel_max              =   4.4204192351630E-03
(PID.TID 0000.0001) %MON advcfl_vvel_max              =   3.1049078784399E-03
(PID.TID 0000.0001) %MON advcfl_wvel_max              =   8.3117965801333E-03
(PID.TID 0000.0001) %MON advcfl_W_hf_max              =   8.3117965801333E-03
(PID.TID 0000.0001) %MON pe_b_mean                    =  -8.2960508396195E-01
(PID.TID 0000.0001) %MON ke_max                       =   7.7773371999034E-04
(PID.TID 0000.0001) %MON ke_mean                      =   1.0372147663945E-06
(PID.TID 0000.0001) %MON ke_vol                       =   4.2724685940370E+12
(PID.TID 0000.0001) // =======================================================
(PID.TID 0000.0001) // End MONITOR dynamic field statistics
(PID.TID 0000.0001) // =======================================================
(PID.TID 0000.0001) // =======================================================
(PID.TID 0000.0001) // Begin OBCS MONITOR field statistics
(PID.TID 0000.0001) // =======================================================
(PID.TID 0000.0001) %MON obc_N_vVel_max               =   1.4995131611264E-05
(PID.TID 0000.0001) %MON obc_N_vVel_min               =   1.4995131611263E-05
(PID.TID 0000.0001) %MON obc_N_vVel_mean              =   1.4995131611263E-05
(PID.TID 0000.0001) %MON obc_N_vVel_sd                =   5.3323853533396E-13
(PID.TID 0000.0001) %MON obc_N_vVel_Int               =   9.8967868634339E+02
(PID.TID 0000.0001) // =======================================================
(PID.TID 0000.0001) // End OBCS MONITOR field statistics
(PID.TID 0000.0001) // =======================================================
 cg2d: Sum(rhs),rhsMax =   4.50719085795813E+00  2.99954442534433E+02
(PID.TID 0000.0001)      cg2d_init_res =   9.30127881117343E-06
(PID.TID 0000.0001)      cg2d_iters(min,last) =      -1      83
(PID.TID 0000.0001)      cg2d_last_res =   9.93200297051915E-12
(PID.TID 0000.0001) // =======================================================
(PID.TID 0000.0001) // Begin MONITOR dynamic field statistics
(PID.TID 0000.0001) // =======================================================
(PID.TID 0000.0001) %MON time_tsnumber                =                  1317
(PID.TID 0000.0001) %MON time_secondsf                =   1.3170000000000E+05
(PID.TID 0000.0001) %MON dynstat_eta_max              =   5.7982060016674E+00
(PID.TID 0000.0001) %MON dynstat_eta_min              =  -1.4189320962503E+01
(PID.TID 0000.0001) %MON dynstat_eta_mean             =  -2.5036146688799E+00
(PID.TID 0000.0001) %MON dynstat_eta_sd               =   4.9498808713065E+00
(PID.TID 0000.0001) %MON dynstat_eta_del2             =   2.0716135951457E-01
(PID.TID 0000.0001) %MON dynstat_uvel_max             =   9.6022019230624E-03
(PID.TID 0000.0001) %MON dynstat_uvel_min             =  -4.4306445909502E-02
(PID.TID 0000.0001) %MON dynstat_uvel_mean            =  -1.0937462731753E-07
(PID.TID 0000.0001) %MON dynstat_uvel_sd              =   1.2758528761489E-03
(PID.TID 0000.0001) %MON dynstat_uvel_del2            =   1.8968471235507E-06
(PID.TID 0000.0001) %MON dynstat_vvel_max             =   3.1099927610695E-02
(PID.TID 0000.0001) %MON dynstat_vvel_min             =  -1.4706210731525E-02
(PID.TID 0000.0001) %MON dynstat_vvel_mean            =   1.5283825014192E-05
(PID.TID 0000.0001) %MON dynstat_vvel_sd              =   6.9839846265261E-04
(PID.TID 0000.0001) %MON dynstat_vvel_del2            =   1.4376971956843E-06
(PID.TID 0000.0001) %MON dynstat_wvel_max             =   1.6655079268331E-03
(PID.TID 0000.0001) %MON dynstat_wvel_min             =  -1.6028490749536E-03
(PID.TID 0000.0001) %MON dynstat_wvel_mean            =   7.2280816529309E-09
(PID.TID 0000.0001) %MON dynstat_wvel_sd              =   2.6714400385093E-05
(PID.TID 0000.0001) %MON dynstat_wvel_del2            =   1.0885136510894E-07
(PID.TID 0000.0001) %MON dynstat_theta_max            =   1.2000000000000E+00
(PID.TID 0000.0001) %MON dynstat_theta_min            =  -1.0000000000000E+00
(PID.TID 0000.0001) %MON dynstat_theta_mean           =   5.6845615840716E-01
(PID.TID 0000.0001) %MON dynstat_theta_sd             =   8.6823467842770E-01
(PID.TID 0000.0001) %MON dynstat_theta_del2           =   4.5883455554498E-06
(PID.TID 0000.0001) %MON dynstat_salt_max             =   3.4700000000000E+01
(PID.TID 0000.0001) %MON dynstat_salt_min             =   3.4000000000000E+01
(PID.TID 0000.0001) %MON dynstat_salt_mean            =   3.4498996573849E+01
(PID.TID 0000.0001) %MON dynstat_salt_sd              =   2.7623357818619E-01
(PID.TID 0000.0001) %MON dynstat_salt_del2            =   1.8164240527471E-06
(PID.TID 0000.0001) %MON advcfl_uvel_max              =   4.4306445909502E-03
(PID.TID 0000.0001) %MON advcfl_vvel_max              =   3.1099927610695E-03
(PID.TID 0000.0001) %MON advcfl_wvel_max              =   8.3275396341655E-03
(PID.TID 0000.0001) %MON advcfl_W_hf_max              =   8.3275396341655E-03
(PID.TID 0000.0001) %MON pe_b_mean                    =  -8.2960609905362E-01
(PID.TID 0000.0001) %MON ke_max                       =   7.8167792536716E-04
(PID.TID 0000.0001) %MON ke_mean                      =   1.0417504332429E-06
(PID.TID 0000.0001) %MON ke_vol                       =   4.2724685613610E+12
(PID.TID 0000.0001) // =======================================================
(PID.TID 0000.0001) // End MONITOR dynamic field statistics
(PID.TID 0000.0001) // =======================================================
(PID.TID 0000.0001) // =======================================================
(PID.TID 0000.0001) // Begin OBCS MONITOR field statistics
(PID.TID 0000.0001) // =======================================================
(PID.TID 0000.0001) %MON obc_N_vVel_max               =   1.4985203619696E-05
(PID.TID 0000.0001) %MON obc_N_vVel_min               =   1.4985203619696E-05
(PID.TID 0000.0001) %MON obc_N_vVel_mean              =   1.4985203619696E-05
(PID.TID 0000.0001) %MON obc_N_vVel_sd                =   3.3648231208073E-12
(PID.TID 0000.0001) %MON obc_N_vVel_Int               =   9.8902343889994E+02
(PID.TID 0000.0001) // =======================================================
(PID.TID 0000.0001) // End OBCS MONITOR field statistics
(PID.TID 0000.0001) // =======================================================
 cg2d: Sum(rhs),rhsMax =   4.50719953075228E+00  2.99954516802410E+02
(PID.TID 0000.0001)      cg2d_init_res =   9.30283387981934E-06
(PID.TID 0000.0001)      cg2d_iters(min,last) =      -1      83
(PID.TID 0000.0001)      cg2d_last_res =   9.93097841000618E-12
(PID.TID 0000.0001) // =======================================================
(PID.TID 0000.0001) // Begin MONITOR dynamic field statistics
(PID.TID 0000.0001) // =======================================================
(PID.TID 0000.0001) %MON time_tsnumber                =                  1318
(PID.TID 0000.0001) %MON time_secondsf                =   1.3180000000000E+05
(PID.TID 0000.0001) %MON dynstat_eta_max              =   5.7982247961327E+00
(PID.TID 0000.0001) %MON dynstat_eta_min              =  -1.4189350696758E+01
(PID.TID 0000.0001) %MON dynstat_eta_mean             =  -2.5036201062571E+00
(PID.TID 0000.0001) %MON dynstat_eta_sd               =   4.9498831351813E+00
(PID.TID 0000.0001) %MON dynstat_eta_del2             =   2.0716140523590E-01
(PID.TID 0000.0001) %MON dynstat_uvel_max             =   9.6229755303412E-03
(PID.TID 0000.0001) %MON dynstat_uvel_min             =  -4.4408836174753E-02
(PID.TID 0000.0001) %MON dynstat_uvel_mean            =  -1.0924975987352E-07
(PID.TID 0000.0001) %MON dynstat_uvel_sd              =   1.2787427795991E-03
(PID.TID 0000.0001) %MON dynstat_uvel_del2            =   1.9014441398747E-06
(PID.TID 0000.0001) %MON dynstat_vvel_max             =   3.1150773758702E-02
(PID.TID 0000.0001) %MON dynstat_vvel_min             =  -1.4743011372932E-02
(PID.TID 0000.0001) %MON dynstat_vvel_mean            =   1.5268628836904E-05
(PID.TID 0000.0001) %MON dynstat_vvel_sd              =   6.9973843928356E-04
(PID.TID 0000.0001) %MON dynstat_vvel_del2            =   1.4406022182334E-06
(PID.TID 0000.0001) %MON dynstat_wvel_max             =   1.6686577076340E-03
(PID.TID 0000.0001) %MON dynstat_wvel_min             =  -1.6059603396556E-03
(PID.TID 0000.0001) %MON dynstat_wvel_mean            =   7.1936994719410E-09
(PID.TID 0000.0001) %MON dynstat_wvel_sd              =   2.6764274016491E-05
(PID.TID 0000.0001) %MON dynstat_wvel_del2            =   1.0906197220496E-07
(PID.TID 0000.0001) %MON dynstat_theta_max            =   1.2000000000000E+00
(PID.TID 0000.0001) %MON dynstat_theta_min            =  -1.0000000000000E+00
(PID.TID 0000.0001) %MON dynstat_theta_mean           =   5.6845482417452E-01
(PID.TID 0000.0001) %MON dynstat_theta_sd             =   8.6823396449217E-01
(PID.TID 0000.0001) %MON dynstat_theta_del2           =   4.5973091430640E-06
(PID.TID 0000.0001) %MON dynstat_salt_max             =   3.4700000000000E+01
(PID.TID 0000.0001) %MON dynstat_salt_min             =   3.4000000000000E+01
(PID.TID 0000.0001) %MON dynstat_salt_mean            =   3.4498996039593E+01
(PID.TID 0000.0001) %MON dynstat_salt_sd              =   2.7623330409641E-01
(PID.TID 0000.0001) %MON dynstat_salt_del2            =   1.8199951694768E-06
(PID.TID 0000.0001) %MON advcfl_uvel_max              =   4.4408836174753E-03
(PID.TID 0000.0001) %MON advcfl_vvel_max              =   3.1150773758702E-03
(PID.TID 0000.0001) %MON advcfl_wvel_max              =   8.3432885381702E-03
(PID.TID 0000.0001) %MON advcfl_W_hf_max              =   8.3432885381702E-03
(PID.TID 0000.0001) %MON pe_b_mean                    =  -8.2960710325512E-01
(PID.TID 0000.0001) %MON ke_max                       =   7.8563856801700E-04
(PID.TID 0000.0001) %MON ke_mean                      =   1.0463049938445E-06
(PID.TID 0000.0001) %MON ke_vol                       =   4.2724685288669E+12
(PID.TID 0000.0001) // =======================================================
(PID.TID 0000.0001) // End MONITOR dynamic field statistics
(PID.TID 0000.0001) // =======================================================
(PID.TID 0000.0001) // =======================================================
(PID.TID 0000.0001) // Begin OBCS MONITOR field statistics
(PID.TID 0000.0001) // =======================================================
(PID.TID 0000.0001) %MON obc_N_vVel_max               =   1.4973158837941E-05
(PID.TID 0000.0001) %MON obc_N_vVel_min               =   1.4973158837941E-05
(PID.TID 0000.0001) %MON obc_N_vVel_mean              =   1.4973158837941E-05
(PID.TID 0000.0001) %MON obc_N_vVel_sd                =   3.9806630866250E-12
(PID.TID 0000.0001) %MON obc_N_vVel_Int               =   9.8822848330411E+02
(PID.TID 0000.0001) // =======================================================
(PID.TID 0000.0001) // End OBCS MONITOR field statistics
(PID.TID 0000.0001) // =======================================================
 cg2d: Sum(rhs),rhsMax =   4.50720814438781E+00  2.99954590798539E+02
(PID.TID 0000.0001)      cg2d_init_res =   9.30455446794130E-06
(PID.TID 0000.0001)      cg2d_iters(min,last) =      -1      83
(PID.TID 0000.0001)      cg2d_last_res =   9.93126193928786E-12
(PID.TID 0000.0001) // =======================================================
(PID.TID 0000.0001) // Begin MONITOR dynamic field statistics
(PID.TID 0000.0001) // =======================================================
(PID.TID 0000.0001) %MON time_tsnumber                =                  1319
(PID.TID 0000.0001) %MON time_secondsf                =   1.3190000000000E+05
(PID.TID 0000.0001) %MON dynstat_eta_max              =   5.7982437098029E+00
(PID.TID 0000.0001) %MON dynstat_eta_min              =  -1.4189380415840E+01
(PID.TID 0000.0001) %MON dynstat_eta_mean             =  -2.5036255085068E+00
(PID.TID 0000.0001) %MON dynstat_eta_sd               =   4.9498853868270E+00
(PID.TID 0000.0001) %MON dynstat_eta_del2             =   2.0716145101909E-01
(PID.TID 0000.0001) %MON dynstat_uvel_max             =   9.6437831922387E-03
(PID.TID 0000.0001) %MON dynstat_uvel_min             =  -4.4511363102634E-02
(PID.TID 0000.0001) %MON dynstat_uvel_mean            =  -1.0913940359712E-07
(PID.TID 0000.0001) %MON dynstat_uvel_sd              =   1.2816384874973E-03
(PID.TID 0000.0001) %MON dynstat_uvel_del2            =   1.9060524373382E-06
(PID.TID 0000.0001) %MON dynstat_vvel_max             =   3.1201617030785E-02
(PID.TID 0000.0001) %MON dynstat_vvel_min             =  -1.4779892922746E-02
(PID.TID 0000.0001) %MON dynstat_vvel_mean            =   1.5251507862212E-05
(PID.TID 0000.0001) %MON dynstat_vvel_sd              =   7.0108084967688E-04
(PID.TID 0000.0001) %MON dynstat_vvel_del2            =   1.4435145400383E-06
(PID.TID 0000.0001) %MON dynstat_wvel_max             =   1.6718086404910E-03
(PID.TID 0000.0001) %MON dynstat_wvel_min             =  -1.6090735216534E-03
(PID.TID 0000.0001) %MON dynstat_wvel_mean            =   7.1593543301410E-09
(PID.TID 0000.0001) %MON dynstat_wvel_sd              =   2.6815388770686E-05
(PID.TID 0000.0001) %MON dynstat_wvel_del2            =   1.0928444118350E-07
(PID.TID 0000.0001) %MON dynstat_theta_max            =   1.2000000000000E+00
(PID.TID 0000.0001) %MON dynstat_theta_min            =  -1.0000000000000E+00
(PID.TID 0000.0001) %MON dynstat_theta_mean           =   5.6845348764216E-01
(PID.TID 0000.0001) %MON dynstat_theta_sd             =   8.6823324938455E-01
(PID.TID 0000.0001) %MON dynstat_theta_del2           =   4.6062901403475E-06
(PID.TID 0000.0001) %MON dynstat_salt_max             =   3.4700000000000E+01
(PID.TID 0000.0001) %MON dynstat_salt_min             =   3.4000000000000E+01
(PID.TID 0000.0001) %MON dynstat_salt_mean            =   3.4498995504411E+01
(PID.TID 0000.0001) %MON dynstat_salt_sd              =   2.7623302956658E-01
(PID.TID 0000.0001) %MON dynstat_salt_del2            =   1.8235729530631E-06
(PID.TID 0000.0001) %MON advcfl_uvel_max              =   4.4511363102634E-03
(PID.TID 0000.0001) %MON advcfl_vvel_max              =   3.1201617030785E-03
(PID.TID 0000.0001) %MON advcfl_wvel_max              =   8.3590432024549E-03
(PID.TID 0000.0001) %MON advcfl_W_hf_max              =   8.3590432024549E-03
(PID.TID 0000.0001) %MON pe_b_mean                    =  -8.2960809608952E-01
(PID.TID 0000.0001) %MON ke_max                       =   7.8961568887563E-04
(PID.TID 0000.0001) %MON ke_mean                      =   1.0508785049237E-06
(PID.TID 0000.0001) %MON ke_vol                       =   4.2724684965688E+12
(PID.TID 0000.0001) // =======================================================
(PID.TID 0000.0001) // End MONITOR dynamic field statistics
(PID.TID 0000.0001) // =======================================================
(PID.TID 0000.0001) // =======================================================
(PID.TID 0000.0001) // Begin OBCS MONITOR field statistics
(PID.TID 0000.0001) // =======================================================
(PID.TID 0000.0001) %MON obc_N_vVel_max               =   1.4959243008642E-05
(PID.TID 0000.0001) %MON obc_N_vVel_min               =   1.4959243008642E-05
(PID.TID 0000.0001) %MON obc_N_vVel_mean              =   1.4959243008642E-05
(PID.TID 0000.0001) %MON obc_N_vVel_sd                =   3.3954130510820E-12
(PID.TID 0000.0001) %MON obc_N_vVel_Int               =   9.8731003857034E+02
(PID.TID 0000.0001) // =======================================================
(PID.TID 0000.0001) // End OBCS MONITOR field statistics
(PID.TID 0000.0001) // =======================================================
 cg2d: Sum(rhs),rhsMax =   4.50721669543862E+00  2.99954664534572E+02
(PID.TID 0000.0001)      cg2d_init_res =   9.30658899812042E-06
(PID.TID 0000.0001)      cg2d_iters(min,last) =      -1      83
(PID.TID 0000.0001)      cg2d_last_res =   9.93303423521842E-12
(PID.TID 0000.0001) // =======================================================
(PID.TID 0000.0001) // Begin MONITOR dynamic field statistics
(PID.TID 0000.0001) // =======================================================
(PID.TID 0000.0001) %MON time_tsnumber                =                  1320
(PID.TID 0000.0001) %MON time_secondsf                =   1.3200000000000E+05
(PID.TID 0000.0001) %MON dynstat_eta_max              =   5.7982627456278E+00
(PID.TID 0000.0001) %MON dynstat_eta_min              =  -1.4189410118647E+01
(PID.TID 0000.0001) %MON dynstat_eta_mean             =  -2.5036308738239E+00
(PID.TID 0000.0001) %MON dynstat_eta_sd               =   4.9498876259319E+00
(PID.TID 0000.0001) %MON dynstat_eta_del2             =   2.0716149686431E-01
(PID.TID 0000.0001) %MON dynstat_uvel_max             =   9.6646248969847E-03
(PID.TID 0000.0001) %MON dynstat_uvel_min             =  -4.4614026645649E-02
(PID.TID 0000.0001) %MON dynstat_uvel_mean            =  -1.0904493117329E-07
(PID.TID 0000.0001) %MON dynstat_uvel_sd              =   1.2845400078866E-03
(PID.TID 0000.0001) %MON dynstat_uvel_del2            =   1.9106720457857E-06
(PID.TID 0000.0001) %MON dynstat_vvel_max             =   3.1252457235966E-02
(PID.TID 0000.0001) %MON dynstat_vvel_min             =  -1.4816855443009E-02
(PID.TID 0000.0001) %MON dynstat_vvel_mean            =   1.5232801736760E-05
(PID.TID 0000.0001) %MON dynstat_vvel_sd              =   7.0242565862213E-04
(PID.TID 0000.0001) %MON dynstat_vvel_del2            =   1.4464332052603E-06
(PID.TID 0000.0001) %MON dynstat_wvel_max             =   1.6749607073859E-03
(PID.TID 0000.0001) %MON dynstat_wvel_min             =  -1.6121886069498E-03
(PID.TID 0000.0001) %MON dynstat_wvel_mean            =   7.1257014304234E-09
(PID.TID 0000.0001) %MON dynstat_wvel_sd              =   2.6867088447216E-05
(PID.TID 0000.0001) %MON dynstat_wvel_del2            =   1.0951475291864E-07
(PID.TID 0000.0001) %MON dynstat_theta_max            =   1.2000000000000E+00
(PID.TID 0000.0001) %MON dynstat_theta_min            =  -1.0000000000000E+00
(PID.TID 0000.0001) %MON dynstat_theta_mean           =   5.6845214880308E-01
(PID.TID 0000.0001) %MON dynstat_theta_sd             =   8.6823253310568E-01
(PID.TID 0000.0001) %MON dynstat_theta_del2           =   4.6152891127394E-06
(PID.TID 0000.0001) %MON dynstat_salt_max             =   3.4700000000000E+01
(PID.TID 0000.0001) %MON dynstat_salt_min             =   3.4000000000000E+01
(PID.TID 0000.0001) %MON dynstat_salt_mean            =   3.4498994968303E+01
(PID.TID 0000.0001) %MON dynstat_salt_sd              =   2.7623275459696E-01
(PID.TID 0000.0001) %MON dynstat_salt_del2            =   1.8271576392718E-06
(PID.TID 0000.0001) %MON advcfl_uvel_max              =   4.4614026645649E-03
(PID.TID 0000.0001) %MON advcfl_vvel_max              =   3.1252457235966E-03
(PID.TID 0000.0001) %MON advcfl_wvel_max              =   8.3748035369296E-03
(PID.TID 0000.0001) %MON advcfl_W_hf_max              =   8.3748035369296E-03
(PID.TID 0000.0001) %MON pe_b_mean                    =  -8.2960907716813E-01
(PID.TID 0000.0001) %MON ke_max                       =   7.9360932882003E-04
(PID.TID 0000.0001) %MON ke_mean                      =   1.0554710163418E-06
(PID.TID 0000.0001) %MON ke_vol                       =   4.2724684644795E+12
(PID.TID 0000.0001) // =======================================================
(PID.TID 0000.0001) // End MONITOR dynamic field statistics
(PID.TID 0000.0001) // =======================================================
(PID.TID 0000.0001) // =======================================================
(PID.TID 0000.0001) // Begin OBCS MONITOR field statistics
(PID.TID 0000.0001) // =======================================================
(PID.TID 0000.0001) %MON obc_N_vVel_max               =   1.4943734433161E-05
(PID.TID 0000.0001) %MON obc_N_vVel_min               =   1.4943734433160E-05
(PID.TID 0000.0001) %MON obc_N_vVel_mean              =   1.4943734433160E-05
(PID.TID 0000.0001) %MON obc_N_vVel_sd                =   2.7379416175773E-12
(PID.TID 0000.0001) %MON obc_N_vVel_Int               =   9.8628647258858E+02
(PID.TID 0000.0001) // =======================================================
(PID.TID 0000.0001) // End OBCS MONITOR field statistics
(PID.TID 0000.0001) // =======================================================
 cg2d: Sum(rhs),rhsMax =   4.50722518100812E+00  2.99954738027586E+02
(PID.TID 0000.0001)      cg2d_init_res =   9.30907857320673E-06
(PID.TID 0000.0001)      cg2d_iters(min,last) =      -1      83
(PID.TID 0000.0001)      cg2d_last_res =   9.93647033965146E-12
(PID.TID 0000.0001) // =======================================================
(PID.TID 0000.0001) // Begin MONITOR dynamic field statistics
(PID.TID 0000.0001) // =======================================================
(PID.TID 0000.0001) %MON time_tsnumber                =                  1321
(PID.TID 0000.0001) %MON time_secondsf                =   1.3210000000000E+05
(PID.TID 0000.0001) %MON dynstat_eta_max              =   5.7982819058432E+00
(PID.TID 0000.0001) %MON dynstat_eta_min              =  -1.4189439804452E+01
(PID.TID 0000.0001) %MON dynstat_eta_mean             =  -2.5036362007419E+00
(PID.TID 0000.0001) %MON dynstat_eta_sd               =   4.9498898523165E+00
(PID.TID 0000.0001) %MON dynstat_eta_del2             =   2.0716154277190E-01
(PID.TID 0000.0001) %MON dynstat_uvel_max             =   9.6867865475829E-03
(PID.TID 0000.0001) %MON dynstat_uvel_min             =  -4.4716826752456E-02
(PID.TID 0000.0001) %MON dynstat_uvel_mean            =  -1.0896742905632E-07
(PID.TID 0000.0001) %MON dynstat_uvel_sd              =   1.2874473488618E-03
(PID.TID 0000.0001) %MON dynstat_uvel_del2            =   1.9153029952016E-06
(PID.TID 0000.0001) %MON dynstat_vvel_max             =   3.1303294188677E-02
(PID.TID 0000.0001) %MON dynstat_vvel_min             =  -1.4853898990298E-02
(PID.TID 0000.0001) %MON dynstat_vvel_mean            =   1.5212876781993E-05
(PID.TID 0000.0001) %MON dynstat_vvel_sd              =   7.0377282749770E-04
(PID.TID 0000.0001) %MON dynstat_vvel_del2            =   1.4493571787927E-06
(PID.TID 0000.0001) %MON dynstat_wvel_max             =   1.6781138902162E-03
(PID.TID 0000.0001) %MON dynstat_wvel_min             =  -1.6153055818419E-03
(PID.TID 0000.0001) %MON dynstat_wvel_mean            =   7.0933783349717E-09
(PID.TID 0000.0001) %MON dynstat_wvel_sd              =   2.6918651651318E-05
(PID.TID 0000.0001) %MON dynstat_wvel_del2            =   1.0974836581638E-07
(PID.TID 0000.0001) %MON dynstat_theta_max            =   1.2000000000000E+00
(PID.TID 0000.0001) %MON dynstat_theta_min            =  -1.0000000000000E+00
(PID.TID 0000.0001) %MON dynstat_theta_mean           =   5.6845080765012E-01
(PID.TID 0000.0001) %MON dynstat_theta_sd             =   8.6823181565594E-01
(PID.TID 0000.0001) %MON dynstat_theta_del2           =   4.6243070492773E-06
(PID.TID 0000.0001) %MON dynstat_salt_max             =   3.4700000000000E+01
(PID.TID 0000.0001) %MON dynstat_salt_min             =   3.4000000000000E+01
(PID.TID 0000.0001) %MON dynstat_salt_mean            =   3.4498994431263E+01
(PID.TID 0000.0001) %MON dynstat_salt_sd              =   2.7623247918777E-01
(PID.TID 0000.0001) %MON dynstat_salt_del2            =   1.8307496364297E-06
(PID.TID 0000.0001) %MON advcfl_uvel_max              =   4.4716826752456E-03
(PID.TID 0000.0001) %MON advcfl_vvel_max              =   3.1303294188677E-03
(PID.TID 0000.0001) %MON advcfl_wvel_max              =   8.3905694510808E-03
(PID.TID 0000.0001) %MON advcfl_W_hf_max              =   8.3905694510808E-03
(PID.TID 0000.0001) %MON pe_b_mean                    =  -8.2961004619648E-01
(PID.TID 0000.0001) %MON ke_max                       =   7.9761952864562E-04
(PID.TID 0000.0001) %MON ke_mean                      =   1.0600825760299E-06
(PID.TID 0000.0001) %MON ke_vol                       =   4.2724684326095E+12
(PID.TID 0000.0001) // =======================================================
(PID.TID 0000.0001) // End MONITOR dynamic field statistics
(PID.TID 0000.0001) // =======================================================
(PID.TID 0000.0001) // =======================================================
(PID.TID 0000.0001) // Begin OBCS MONITOR field statistics
(PID.TID 0000.0001) // =======================================================
(PID.TID 0000.0001) %MON obc_N_vVel_max               =   1.4926938665508E-05
(PID.TID 0000.0001) %MON obc_N_vVel_min               =   1.4926938665508E-05
(PID.TID 0000.0001) %MON obc_N_vVel_mean              =   1.4926938665508E-05
(PID.TID 0000.0001) %MON obc_N_vVel_sd                =   4.5644946794447E-12
(PID.TID 0000.0001) %MON obc_N_vVel_Int               =   9.8517795192353E+02
(PID.TID 0000.0001) // =======================================================
(PID.TID 0000.0001) // End OBCS MONITOR field statistics
(PID.TID 0000.0001) // =======================================================
 cg2d: Sum(rhs),rhsMax =   4.50723359877880E+00  2.99954811299653E+02
(PID.TID 0000.0001)      cg2d_init_res =   9.31215477848197E-06
(PID.TID 0000.0001)      cg2d_iters(min,last) =      -1      83
(PID.TID 0000.0001)      cg2d_last_res =   9.94168745166340E-12
(PID.TID 0000.0001) // =======================================================
(PID.TID 0000.0001) // Begin MONITOR dynamic field statistics
(PID.TID 0000.0001) // =======================================================
(PID.TID 0000.0001) %MON time_tsnumber                =                  1322
(PID.TID 0000.0001) %MON time_secondsf                =   1.3220000000000E+05
(PID.TID 0000.0001) %MON dynstat_eta_max              =   5.7983011919426E+00
(PID.TID 0000.0001) %MON dynstat_eta_min              =  -1.4189469472928E+01
(PID.TID 0000.0001) %MON dynstat_eta_mean             =  -2.5036414881577E+00
(PID.TID 0000.0001) %MON dynstat_eta_sd               =   4.9498920659379E+00
(PID.TID 0000.0001) %MON dynstat_eta_del2             =   2.0716158874241E-01
(PID.TID 0000.0001) %MON dynstat_uvel_max             =   9.7102288400812E-03
(PID.TID 0000.0001) %MON dynstat_uvel_min             =  -4.4819763367444E-02
(PID.TID 0000.0001) %MON dynstat_uvel_mean            =  -1.0890769594654E-07
(PID.TID 0000.0001) %MON dynstat_uvel_sd              =   1.2903605185601E-03
(PID.TID 0000.0001) %MON dynstat_uvel_del2            =   1.9199453156759E-06
(PID.TID 0000.0001) %MON dynstat_vvel_max             =   3.1354127707290E-02
(PID.TID 0000.0001) %MON dynstat_vvel_min             =  -1.4891023617295E-02
(PID.TID 0000.0001) %MON dynstat_vvel_mean            =   1.5192119051351E-05
(PID.TID 0000.0001) %MON dynstat_vvel_sd              =   7.0512232211893E-04
(PID.TID 0000.0001) %MON dynstat_vvel_del2            =   1.4522854341640E-06
(PID.TID 0000.0001) %MON dynstat_wvel_max             =   1.6812681708169E-03
(PID.TID 0000.0001) %MON dynstat_wvel_min             =  -1.6184244327662E-03
(PID.TID 0000.0001) %MON dynstat_wvel_mean            =   7.0629936452685E-09
(PID.TID 0000.0001) %MON dynstat_wvel_sd              =   2.6969348993725E-05
(PID.TID 0000.0001) %MON dynstat_wvel_del2            =   1.0998058349584E-07
(PID.TID 0000.0001) %MON dynstat_theta_max            =   1.2000000000000E+00
(PID.TID 0000.0001) %MON dynstat_theta_min            =  -1.0000000000000E+00
(PID.TID 0000.0001) %MON dynstat_theta_mean           =   5.6844946417612E-01
(PID.TID 0000.0001) %MON dynstat_theta_sd             =   8.6823109703460E-01
(PID.TID 0000.0001) %MON dynstat_theta_del2           =   4.6333448731753E-06
(PID.TID 0000.0001) %MON dynstat_salt_max             =   3.4700000000000E+01
(PID.TID 0000.0001) %MON dynstat_salt_min             =   3.4000000000000E+01
(PID.TID 0000.0001) %MON dynstat_salt_mean            =   3.4498993893291E+01
(PID.TID 0000.0001) %MON dynstat_salt_sd              =   2.7623220333871E-01
(PID.TID 0000.0001) %MON dynstat_salt_del2            =   1.8343489894600E-06
(PID.TID 0000.0001) %MON advcfl_uvel_max              =   4.4819763367444E-03
(PID.TID 0000.0001) %MON advcfl_vvel_max              =   3.1354127707290E-03
(PID.TID 0000.0001) %MON advcfl_wvel_max              =   8.4063408540844E-03
(PID.TID 0000.0001) %MON advcfl_W_hf_max              =   8.4063408540844E-03
(PID.TID 0000.0001) %MON pe_b_mean                    =  -8.2961100297924E-01
(PID.TID 0000.0001) %MON ke_max                       =   8.0164632903768E-04
(PID.TID 0000.0001) %MON ke_mean                      =   1.0647132353750E-06
(PID.TID 0000.0001) %MON ke_vol                       =   4.2724684009676E+12
(PID.TID 0000.0001) // =======================================================
(PID.TID 0000.0001) // End MONITOR dynamic field statistics
(PID.TID 0000.0001) // =======================================================
(PID.TID 0000.0001) // =======================================================
(PID.TID 0000.0001) // Begin OBCS MONITOR field statistics
(PID.TID 0000.0001) // =======================================================
(PID.TID 0000.0001) %MON obc_N_vVel_max               =   1.4909182659886E-05
(PID.TID 0000.0001) %MON obc_N_vVel_min               =   1.4909182659886E-05
(PID.TID 0000.0001) %MON obc_N_vVel_mean              =   1.4909182659886E-05
(PID.TID 0000.0001) %MON obc_N_vVel_sd                =  -1.5509636485369E-25
(PID.TID 0000.0001) %MON obc_N_vVel_Int               =   9.8400605555249E+02
(PID.TID 0000.0001) // =======================================================
(PID.TID 0000.0001) // End OBCS MONITOR field statistics
(PID.TID 0000.0001) // =======================================================
 cg2d: Sum(rhs),rhsMax =   4.50724194704826E+00  2.99954884377490E+02
(PID.TID 0000.0001)      cg2d_init_res =   9.31590814787300E-06
(PID.TID 0000.0001)      cg2d_iters(min,last) =      -1      83
(PID.TID 0000.0001)      cg2d_last_res =   9.94877679305768E-12
(PID.TID 0000.0001) // =======================================================
(PID.TID 0000.0001) // Begin MONITOR dynamic field statistics
(PID.TID 0000.0001) // =======================================================
(PID.TID 0000.0001) %MON time_tsnumber                =                  1323
(PID.TID 0000.0001) %MON time_secondsf                =   1.3230000000000E+05
(PID.TID 0000.0001) %MON dynstat_eta_max              =   5.7983206046510E+00
(PID.TID 0000.0001) %MON dynstat_eta_min              =  -1.4189499124152E+01
(PID.TID 0000.0001) %MON dynstat_eta_mean             =  -2.5036467353486E+00
(PID.TID 0000.0001) %MON dynstat_eta_sd               =   4.9498942668822E+00
(PID.TID 0000.0001) %MON dynstat_eta_del2             =   2.0716163477623E-01
(PID.TID 0000.0001) %MON dynstat_uvel_max             =   9.7337143686200E-03
(PID.TID 0000.0001) %MON dynstat_uvel_min             =  -4.4922836429753E-02
(PID.TID 0000.0001) %MON dynstat_uvel_mean            =  -1.0886623768145E-07
(PID.TID 0000.0001) %MON dynstat_uvel_sd              =   1.2932795251737E-03
(PID.TID 0000.0001) %MON dynstat_uvel_del2            =   1.9245990370236E-06
(PID.TID 0000.0001) %MON dynstat_vvel_max             =   3.1404957612685E-02
(PID.TID 0000.0001) %MON dynstat_vvel_min             =  -1.4928229374181E-02
(PID.TID 0000.0001) %MON dynstat_vvel_mean            =   1.5170927073180E-05
(PID.TID 0000.0001) %MON dynstat_vvel_sd              =   7.0647412055382E-04
(PID.TID 0000.0001) %MON dynstat_vvel_del2            =   1.4552170378355E-06
(PID.TID 0000.0001) %MON dynstat_wvel_max             =   1.6844235309576E-03
(PID.TID 0000.0001) %MON dynstat_wvel_min             =  -1.6215451462270E-03
(PID.TID 0000.0001) %MON dynstat_wvel_mean            =   7.0351161958256E-09
(PID.TID 0000.0001) %MON dynstat_wvel_sd              =   2.7018500128432E-05
(PID.TID 0000.0001) %MON dynstat_wvel_del2            =   1.1020692586911E-07
(PID.TID 0000.0001) %MON dynstat_theta_max            =   1.2000000000000E+00
(PID.TID 0000.0001) %MON dynstat_theta_min            =  -1.0000000000000E+00
(PID.TID 0000.0001) %MON dynstat_theta_mean           =   5.6844811837395E-01
(PID.TID 0000.0001) %MON dynstat_theta_sd             =   8.6823037724070E-01
(PID.TID 0000.0001) %MON dynstat_theta_del2           =   4.6424033537406E-06
(PID.TID 0000.0001) %MON dynstat_salt_max             =   3.4700000000000E+01
(PID.TID 0000.0001) %MON dynstat_salt_min             =   3.4000000000000E+01
(PID.TID 0000.0001) %MON dynstat_salt_mean            =   3.4498993354384E+01
(PID.TID 0000.0001) %MON dynstat_salt_sd              =   2.7623192704942E-01
(PID.TID 0000.0001) %MON dynstat_salt_del2            =   1.8379558659768E-06
(PID.TID 0000.0001) %MON advcfl_uvel_max              =   4.4922836429753E-03
(PID.TID 0000.0001) %MON advcfl_vvel_max              =   3.1404957612685E-03
(PID.TID 0000.0001) %MON advcfl_wvel_max              =   8.4221176547882E-03
(PID.TID 0000.0001) %MON advcfl_W_hf_max              =   8.4221176547882E-03
(PID.TID 0000.0001) %MON pe_b_mean                    =  -8.2961194742282E-01
(PID.TID 0000.0001) %MON ke_max                       =   8.0568977054713E-04
(PID.TID 0000.0001) %MON ke_mean                      =   1.0693630546721E-06
(PID.TID 0000.0001) %MON ke_vol                       =   4.2724683695603E+12
(PID.TID 0000.0001) // =======================================================
(PID.TID 0000.0001) // End MONITOR dynamic field statistics
(PID.TID 0000.0001) // =======================================================
(PID.TID 0000.0001) // =======================================================
(PID.TID 0000.0001) // Begin OBCS MONITOR field statistics
(PID.TID 0000.0001) // =======================================================
(PID.TID 0000.0001) %MON obc_N_vVel_max               =   1.4890808593630E-05
(PID.TID 0000.0001) %MON obc_N_vVel_min               =   1.4890808593629E-05
(PID.TID 0000.0001) %MON obc_N_vVel_mean              =   1.4890808593629E-05
(PID.TID 0000.0001) %MON obc_N_vVel_sd                =   1.6862483078275E-12
(PID.TID 0000.0001) %MON obc_N_vVel_Int               =   9.8279336717952E+02
(PID.TID 0000.0001) // =======================================================
(PID.TID 0000.0001) // End OBCS MONITOR field statistics
(PID.TID 0000.0001) // =======================================================
 cg2d: Sum(rhs),rhsMax =   4.50725022475307E+00  2.99954957291979E+02
(PID.TID 0000.0001)      cg2d_init_res =   9.32044778540048E-06
(PID.TID 0000.0001)      cg2d_iters(min,last) =      -1      83
(PID.TID 0000.0001)      cg2d_last_res =   9.95781277035067E-12
(PID.TID 0000.0001) // =======================================================
(PID.TID 0000.0001) // Begin MONITOR dynamic field statistics
(PID.TID 0000.0001) // =======================================================
(PID.TID 0000.0001) %MON time_tsnumber                =                  1324
(PID.TID 0000.0001) %MON time_secondsf                =   1.3240000000000E+05
(PID.TID 0000.0001) %MON dynstat_eta_max              =   5.7983401439151E+00
(PID.TID 0000.0001) %MON dynstat_eta_min              =  -1.4189528758600E+01
(PID.TID 0000.0001) %MON dynstat_eta_mean             =  -2.5036519419816E+00
(PID.TID 0000.0001) %MON dynstat_eta_sd               =   4.9498964553682E+00
(PID.TID 0000.0001) %MON dynstat_eta_del2             =   2.0716168087394E-01
(PID.TID 0000.0001) %MON dynstat_uvel_max             =   9.7572431528690E-03
(PID.TID 0000.0001) %MON dynstat_uvel_min             =  -4.5026045872718E-02
(PID.TID 0000.0001) %MON dynstat_uvel_mean            =  -1.0884326317078E-07
(PID.TID 0000.0001) %MON dynstat_uvel_sd              =   1.2962043769357E-03
(PID.TID 0000.0001) %MON dynstat_uvel_del2            =   1.9292641887126E-06
(PID.TID 0000.0001) %MON dynstat_vvel_max             =   3.1455783725638E-02
(PID.TID 0000.0001) %MON dynstat_vvel_min             =  -1.4965516310285E-02
(PID.TID 0000.0001) %MON dynstat_vvel_mean            =   1.5149704374545E-05
(PID.TID 0000.0001) %MON dynstat_vvel_sd              =   7.0782822027713E-04
(PID.TID 0000.0001) %MON dynstat_vvel_del2            =   1.4581512255981E-06
(PID.TID 0000.0001) %MON dynstat_wvel_max             =   1.6875799523001E-03
(PID.TID 0000.0001) %MON dynstat_wvel_min             =  -1.6246677088050E-03
(PID.TID 0000.0001) %MON dynstat_wvel_mean            =   7.0102639029273E-09
(PID.TID 0000.0001) %MON dynstat_wvel_sd              =   2.7065526269935E-05
(PID.TID 0000.0001) %MON dynstat_wvel_del2            =   1.1042347331562E-07
(PID.TID 0000.0001) %MON dynstat_theta_max            =   1.2000000000000E+00
(PID.TID 0000.0001) %MON dynstat_theta_min            =  -1.0000000000000E+00
(PID.TID 0000.0001) %MON dynstat_theta_mean           =   5.6844677023641E-01
(PID.TID 0000.0001) %MON dynstat_theta_sd             =   8.6822965627471E-01
(PID.TID 0000.0001) %MON dynstat_theta_del2           =   4.6514837466259E-06
(PID.TID 0000.0001) %MON dynstat_salt_max             =   3.4700000000000E+01
(PID.TID 0000.0001) %MON dynstat_salt_min             =   3.4000000000000E+01
(PID.TID 0000.0001) %MON dynstat_salt_mean            =   3.4498992814538E+01
(PID.TID 0000.0001) %MON dynstat_salt_sd              =   2.7623165032010E-01
(PID.TID 0000.0001) %MON dynstat_salt_del2            =   1.8415705947978E-06
(PID.TID 0000.0001) %MON advcfl_uvel_max              =   4.5026045872718E-03
(PID.TID 0000.0001) %MON advcfl_vvel_max              =   3.1455783725638E-03
(PID.TID 0000.0001) %MON advcfl_wvel_max              =   8.4378997615004E-03
(PID.TID 0000.0001) %MON advcfl_W_hf_max              =   8.4378997615004E-03
(PID.TID 0000.0001) %MON pe_b_mean                    =  -8.2961287953595E-01
(PID.TID 0000.0001) %MON ke_max                       =   8.0974989356177E-04
(PID.TID 0000.0001) %MON ke_mean                      =   1.0740321081380E-06
(PID.TID 0000.0001) %MON ke_vol                       =   4.2724683383920E+12
(PID.TID 0000.0001) // =======================================================
(PID.TID 0000.0001) // End MONITOR dynamic field statistics
(PID.TID 0000.0001) // =======================================================
(PID.TID 0000.0001) // =======================================================
(PID.TID 0000.0001) // Begin OBCS MONITOR field statistics
(PID.TID 0000.0001) // =======================================================
(PID.TID 0000.0001) %MON obc_N_vVel_max               =   1.4872167411000E-05
(PID.TID 0000.0001) %MON obc_N_vVel_min               =   1.4872167411000E-05
(PID.TID 0000.0001) %MON obc_N_vVel_mean              =   1.4872167411000E-05
(PID.TID 0000.0001) %MON obc_N_vVel_sd                =   2.4330045743037E-12
(PID.TID 0000.0001) %MON obc_N_vVel_Int               =   9.8156304912599E+02
(PID.TID 0000.0001) // =======================================================
(PID.TID 0000.0001) // End OBCS MONITOR field statistics
(PID.TID 0000.0001) // =======================================================
 cg2d: Sum(rhs),rhsMax =   4.50725843148156E+00  2.99955030077610E+02
(PID.TID 0000.0001)      cg2d_init_res =   9.32586576803182E-06
(PID.TID 0000.0001)      cg2d_iters(min,last) =      -1      83
(PID.TID 0000.0001)      cg2d_last_res =   9.96877010457473E-12
(PID.TID 0000.0001) // =======================================================
(PID.TID 0000.0001) // Begin MONITOR dynamic field statistics
(PID.TID 0000.0001) // =======================================================
(PID.TID 0000.0001) %MON time_tsnumber                =                  1325
(PID.TID 0000.0001) %MON time_secondsf                =   1.3250000000000E+05
(PID.TID 0000.0001) %MON dynstat_eta_max              =   5.7983598089238E+00
(PID.TID 0000.0001) %MON dynstat_eta_min              =  -1.4189558377131E+01
(PID.TID 0000.0001) %MON dynstat_eta_mean             =  -2.5036571081160E+00
(PID.TID 0000.0001) %MON dynstat_eta_sd               =   4.9498986317438E+00
(PID.TID 0000.0001) %MON dynstat_eta_del2             =   2.0716172703647E-01
(PID.TID 0000.0001) %MON dynstat_uvel_max             =   9.7808152130590E-03
(PID.TID 0000.0001) %MON dynstat_uvel_min             =  -4.5129391622899E-02
(PID.TID 0000.0001) %MON dynstat_uvel_mean            =  -1.0883867397729E-07
(PID.TID 0000.0001) %MON dynstat_uvel_sd              =   1.2991350818931E-03
(PID.TID 0000.0001) %MON dynstat_uvel_del2            =   1.9339408021149E-06
(PID.TID 0000.0001) %MON dynstat_vvel_max             =   3.1506605867404E-02
(PID.TID 0000.0001) %MON dynstat_vvel_min             =  -1.5002884475363E-02
(PID.TID 0000.0001) %MON dynstat_vvel_mean            =   1.5128851955104E-05
(PID.TID 0000.0001) %MON dynstat_vvel_sd              =   7.0918464379679E-04
(PID.TID 0000.0001) %MON dynstat_vvel_del2            =   1.4610874612447E-06
(PID.TID 0000.0001) %MON dynstat_wvel_max             =   1.6907374165140E-03
(PID.TID 0000.0001) %MON dynstat_wvel_min             =  -1.6277921069308E-03
(PID.TID 0000.0001) %MON dynstat_wvel_mean            =   6.9888951872818E-09
(PID.TID 0000.0001) %MON dynstat_wvel_sd              =   2.7109994307722E-05
(PID.TID 0000.0001) %MON dynstat_wvel_del2            =   1.1062715716348E-07
(PID.TID 0000.0001) %MON dynstat_theta_max            =   1.2000000000000E+00
(PID.TID 0000.0001) %MON dynstat_theta_min            =  -1.0000000000000E+00
(PID.TID 0000.0001) %MON dynstat_theta_mean           =   5.6844541975634E-01
(PID.TID 0000.0001) %MON dynstat_theta_sd             =   8.6822893413552E-01
(PID.TID 0000.0001) %MON dynstat_theta_del2           =   4.6605856292574E-06
(PID.TID 0000.0001) %MON dynstat_salt_max             =   3.4700000000000E+01
(PID.TID 0000.0001) %MON dynstat_salt_min             =   3.4000000000000E+01
(PID.TID 0000.0001) %MON dynstat_salt_mean            =   3.4498992273751E+01
(PID.TID 0000.0001) %MON dynstat_salt_sd              =   2.7623137315055E-01
(PID.TID 0000.0001) %MON dynstat_salt_del2            =   1.8451931034663E-06
(PID.TID 0000.0001) %MON advcfl_uvel_max              =   4.5129391622899E-03
(PID.TID 0000.0001) %MON advcfl_vvel_max              =   3.1506605867404E-03
(PID.TID 0000.0001) %MON advcfl_wvel_max              =   8.4536870825699E-03
(PID.TID 0000.0001) %MON advcfl_W_hf_max              =   8.4536870825699E-03
(PID.TID 0000.0001) %MON pe_b_mean                    =  -8.2961379942857E-01
(PID.TID 0000.0001) %MON ke_max                       =   8.1382673824666E-04
(PID.TID 0000.0001) %MON ke_mean                      =   1.0787204876282E-06
(PID.TID 0000.0001) %MON ke_vol                       =   4.2724683074646E+12
(PID.TID 0000.0001) // =======================================================
(PID.TID 0000.0001) // End MONITOR dynamic field statistics
(PID.TID 0000.0001) // =======================================================
(PID.TID 0000.0001) // =======================================================
(PID.TID 0000.0001) // Begin OBCS MONITOR field statistics
(PID.TID 0000.0001) // =======================================================
(PID.TID 0000.0001) %MON obc_N_vVel_max               =   1.4853612241293E-05
(PID.TID 0000.0001) %MON obc_N_vVel_min               =   1.4853612241293E-05
(PID.TID 0000.0001) %MON obc_N_vVel_mean              =   1.4853612241293E-05
(PID.TID 0000.0001) %MON obc_N_vVel_sd                =  -1.1347884028462E-23
(PID.TID 0000.0001) %MON obc_N_vVel_Int               =   9.8033840792537E+02
(PID.TID 0000.0001) // =======================================================
(PID.TID 0000.0001) // End OBCS MONITOR field statistics
(PID.TID 0000.0001) // =======================================================
 cg2d: Sum(rhs),rhsMax =   4.50726656747437E+00  2.99955102771868E+02
(PID.TID 0000.0001)      cg2d_init_res =   9.33223362205341E-06
(PID.TID 0000.0001)      cg2d_iters(min,last) =      -1      83
(PID.TID 0000.0001)      cg2d_last_res =   9.98170814103827E-12
(PID.TID 0000.0001) // =======================================================
(PID.TID 0000.0001) // Begin MONITOR dynamic field statistics
(PID.TID 0000.0001) // =======================================================
(PID.TID 0000.0001) %MON time_tsnumber                =                  1326
(PID.TID 0000.0001) %MON time_secondsf                =   1.3260000000000E+05
(PID.TID 0000.0001) %MON dynstat_eta_max              =   5.7983795981158E+00
(PID.TID 0000.0001) %MON dynstat_eta_min              =  -1.4189587980991E+01
(PID.TID 0000.0001) %MON dynstat_eta_mean             =  -2.5036622341981E+00
(PID.TID 0000.0001) %MON dynstat_eta_sd               =   4.9499007964702E+00
(PID.TID 0000.0001) %MON dynstat_eta_del2             =   2.0716177326447E-01
(PID.TID 0000.0001) %MON dynstat_uvel_max             =   9.8044305705240E-03
(PID.TID 0000.0001) %MON dynstat_uvel_min             =  -4.5232873597767E-02
(PID.TID 0000.0001) %MON dynstat_uvel_mean            =  -1.0885206619394E-07
(PID.TID 0000.0001) %MON dynstat_uvel_sd              =   1.3020716481786E-03
(PID.TID 0000.0001) %MON dynstat_uvel_del2            =   1.9386289077807E-06
(PID.TID 0000.0001) %MON dynstat_vvel_max             =   3.1557423857397E-02
(PID.TID 0000.0001) %MON dynstat_vvel_min             =  -1.5040333921414E-02
(PID.TID 0000.0001) %MON dynstat_vvel_mean            =   1.5108760882383E-05
(PID.TID 0000.0001) %MON dynstat_vvel_sd              =   7.1054344313684E-04
(PID.TID 0000.0001) %MON dynstat_vvel_del2            =   1.4640254808159E-06
(PID.TID 0000.0001) %MON dynstat_wvel_max             =   1.6938959052054E-03
(PID.TID 0000.0001) %MON dynstat_wvel_min             =  -1.6309183269916E-03
(PID.TID 0000.0001) %MON dynstat_wvel_mean            =   6.9714006149321E-09
(PID.TID 0000.0001) %MON dynstat_wvel_sd              =   2.7151649725269E-05
(PID.TID 0000.0001) %MON dynstat_wvel_del2            =   1.1081598002115E-07
(PID.TID 0000.0001) %MON dynstat_theta_max            =   1.2000000000000E+00
(PID.TID 0000.0001) %MON dynstat_theta_min            =  -1.0000000000000E+00
(PID.TID 0000.0001) %MON dynstat_theta_mean           =   5.6844406692651E-01
(PID.TID 0000.0001) %MON dynstat_theta_sd             =   8.6822821082457E-01
(PID.TID 0000.0001) %MON dynstat_theta_del2           =   4.6697077583250E-06
(PID.TID 0000.0001) %MON dynstat_salt_max             =   3.4700000000000E+01
(PID.TID 0000.0001) %MON dynstat_salt_min             =   3.4000000000000E+01
(PID.TID 0000.0001) %MON dynstat_salt_mean            =   3.4498991732021E+01
(PID.TID 0000.0001) %MON dynstat_salt_sd              =   2.7623109554128E-01
(PID.TID 0000.0001) %MON dynstat_salt_del2            =   1.8488239176298E-06
(PID.TID 0000.0001) %MON advcfl_uvel_max              =   4.5232873597767E-03
(PID.TID 0000.0001) %MON advcfl_vvel_max              =   3.1557423857397E-03
(PID.TID 0000.0001) %MON advcfl_wvel_max              =   8.4694795260271E-03
(PID.TID 0000.0001) %MON advcfl_W_hf_max              =   8.4694795260271E-03
(PID.TID 0000.0001) %MON pe_b_mean                    =  -8.2961470730871E-01
(PID.TID 0000.0001) %MON ke_max                       =   8.1792034445397E-04
(PID.TID 0000.0001) %MON ke_mean                      =   1.0834283062269E-06
(PID.TID 0000.0001) %MON ke_vol                       =   4.2724682767778E+12
(PID.TID 0000.0001) // =======================================================
(PID.TID 0000.0001) // End MONITOR dynamic field statistics
(PID.TID 0000.0001) // =======================================================
(PID.TID 0000.0001) // =======================================================
(PID.TID 0000.0001) // Begin OBCS MONITOR field statistics
(PID.TID 0000.0001) // =======================================================
(PID.TID 0000.0001) %MON obc_N_vVel_max               =   1.4835491923854E-05
(PID.TID 0000.0001) %MON obc_N_vVel_min               =   1.4835491923854E-05
(PID.TID 0000.0001) %MON obc_N_vVel_mean              =   1.4835491923854E-05
(PID.TID 0000.0001) %MON obc_N_vVel_sd                =   4.7367999868583E-12
(PID.TID 0000.0001) %MON obc_N_vVel_Int               =   9.7914246697433E+02
(PID.TID 0000.0001) // =======================================================
(PID.TID 0000.0001) // End OBCS MONITOR field statistics
(PID.TID 0000.0001) // =======================================================
 cg2d: Sum(rhs),rhsMax =   4.50727463361245E+00  2.99955175414504E+02
(PID.TID 0000.0001)      cg2d_init_res =   9.33967389657297E-06
(PID.TID 0000.0001)      cg2d_iters(min,last) =      -1      83
(PID.TID 0000.0001)      cg2d_last_res =   9.99674618710398E-12
(PID.TID 0000.0001) // =======================================================
(PID.TID 0000.0001) // Begin MONITOR dynamic field statistics
(PID.TID 0000.0001) // =======================================================
(PID.TID 0000.0001) %MON time_tsnumber                =                  1327
(PID.TID 0000.0001) %MON time_secondsf                =   1.3270000000000E+05
(PID.TID 0000.0001) %MON dynstat_eta_max              =   5.7983995092328E+00
(PID.TID 0000.0001) %MON dynstat_eta_min              =  -1.4189617571754E+01
(PID.TID 0000.0001) %MON dynstat_eta_mean             =  -2.5036673210492E+00
(PID.TID 0000.0001) %MON dynstat_eta_sd               =   4.9499029501286E+00
(PID.TID 0000.0001) %MON dynstat_eta_del2             =   2.0716181955951E-01
(PID.TID 0000.0001) %MON dynstat_uvel_max             =   9.8280892485239E-03
(PID.TID 0000.0001) %MON dynstat_uvel_min             =  -4.5336491708085E-02
(PID.TID 0000.0001) %MON dynstat_uvel_mean            =  -1.0888276624632E-07
(PID.TID 0000.0001) %MON dynstat_uvel_sd              =   1.3050140842295E-03
(PID.TID 0000.0001) %MON dynstat_uvel_del2            =   1.9433285392201E-06
(PID.TID 0000.0001) %MON dynstat_vvel_max             =   3.1608237511232E-02
(PID.TID 0000.0001) %MON dynstat_vvel_min             =  -1.5077864703917E-02
(PID.TID 0000.0001) %MON dynstat_vvel_mean            =   1.5089805047759E-05
(PID.TID 0000.0001) %MON dynstat_vvel_sd              =   7.1190470189658E-04
(PID.TID 0000.0001) %MON dynstat_vvel_del2            =   1.4669653206143E-06
(PID.TID 0000.0001) %MON dynstat_wvel_max             =   1.6970553999759E-03
(PID.TID 0000.0001) %MON dynstat_wvel_min             =  -1.6340463551411E-03
(PID.TID 0000.0001) %MON dynstat_wvel_mean            =   6.9580955050231E-09
(PID.TID 0000.0001) %MON dynstat_wvel_sd              =   2.7190435656015E-05
(PID.TID 0000.0001) %MON dynstat_wvel_del2            =   1.1098914320865E-07
(PID.TID 0000.0001) %MON dynstat_theta_max            =   1.2000000000000E+00
(PID.TID 0000.0001) %MON dynstat_theta_min            =  -1.0000000000000E+00
(PID.TID 0000.0001) %MON dynstat_theta_mean           =   5.6844271173959E-01
(PID.TID 0000.0001) %MON dynstat_theta_sd             =   8.6822748634443E-01
(PID.TID 0000.0001) %MON dynstat_theta_del2           =   4.6788506986160E-06
(PID.TID 0000.0001) %MON dynstat_salt_max             =   3.4700000000000E+01
(PID.TID 0000.0001) %MON dynstat_salt_min             =   3.4000000000000E+01
(PID.TID 0000.0001) %MON dynstat_salt_mean            =   3.4498991189345E+01
(PID.TID 0000.0001) %MON dynstat_salt_sd              =   2.7623081749294E-01
(PID.TID 0000.0001) %MON dynstat_salt_del2            =   1.8524616600255E-06
(PID.TID 0000.0001) %MON advcfl_uvel_max              =   4.5336491708085E-03
(PID.TID 0000.0001) %MON advcfl_vvel_max              =   3.1608237511232E-03
(PID.TID 0000.0001) %MON advcfl_wvel_max              =   8.4852769998796E-03
(PID.TID 0000.0001) %MON advcfl_W_hf_max              =   8.4852769998796E-03
(PID.TID 0000.0001) %MON pe_b_mean                    =  -8.2961560347761E-01
(PID.TID 0000.0001) %MON ke_max                       =   8.2203075190239E-04
(PID.TID 0000.0001) %MON ke_mean                      =   1.0881557000906E-06
(PID.TID 0000.0001) %MON ke_vol                       =   4.2724682463289E+12
(PID.TID 0000.0001) // =======================================================
(PID.TID 0000.0001) // End MONITOR dynamic field statistics
(PID.TID 0000.0001) // =======================================================
(PID.TID 0000.0001) // =======================================================
(PID.TID 0000.0001) // Begin OBCS MONITOR field statistics
(PID.TID 0000.0001) // =======================================================
(PID.TID 0000.0001) %MON obc_N_vVel_max               =   1.4818144453822E-05
(PID.TID 0000.0001) %MON obc_N_vVel_min               =   1.4818144453822E-05
(PID.TID 0000.0001) %MON obc_N_vVel_mean              =   1.4818144453822E-05
(PID.TID 0000.0001) %MON obc_N_vVel_sd                =   2.1749572703935E-12
(PID.TID 0000.0001) %MON obc_N_vVel_Int               =   9.7799753395223E+02
(PID.TID 0000.0001) // =======================================================
(PID.TID 0000.0001) // End OBCS MONITOR field statistics
(PID.TID 0000.0001) // =======================================================
 cg2d: Sum(rhs),rhsMax =   4.50728263139277E+00  2.99955248047021E+02
(PID.TID 0000.0001)      cg2d_init_res =   9.34811134789693E-06
(PID.TID 0000.0001)      cg2d_iters(min,last) =      -1      84
(PID.TID 0000.0001)      cg2d_last_res =   8.55082743605560E-12
(PID.TID 0000.0001) // =======================================================
(PID.TID 0000.0001) // Begin MONITOR dynamic field statistics
(PID.TID 0000.0001) // =======================================================
(PID.TID 0000.0001) %MON time_tsnumber                =                  1328
(PID.TID 0000.0001) %MON time_secondsf                =   1.3280000000000E+05
(PID.TID 0000.0001) %MON dynstat_eta_max              =   5.7984195392309E+00
(PID.TID 0000.0001) %MON dynstat_eta_min              =  -1.4189647151315E+01
(PID.TID 0000.0001) %MON dynstat_eta_mean             =  -2.5036723698471E+00
(PID.TID 0000.0001) %MON dynstat_eta_sd               =   4.9499050933686E+00
(PID.TID 0000.0001) %MON dynstat_eta_del2             =   2.0716186592087E-01
(PID.TID 0000.0001) %MON dynstat_uvel_max             =   9.8517912763025E-03
(PID.TID 0000.0001) %MON dynstat_uvel_min             =  -4.5440245858481E-02
(PID.TID 0000.0001) %MON dynstat_uvel_mean            =  -1.0893008541355E-07
(PID.TID 0000.0001) %MON dynstat_uvel_sd              =   1.3079623984000E-03
(PID.TID 0000.0001) %MON dynstat_uvel_del2            =   1.9480397209693E-06
(PID.TID 0000.0001) %MON dynstat_vvel_max             =   3.1659046635751E-02
(PID.TID 0000.0001) %MON dynstat_vvel_min             =  -1.5115476886761E-02
(PID.TID 0000.0001) %MON dynstat_vvel_mean            =   1.5072334459851E-05
(PID.TID 0000.0001) %MON dynstat_vvel_sd              =   7.1326853571968E-04
(PID.TID 0000.0001) %MON dynstat_vvel_del2            =   1.4699072962427E-06
(PID.TID 0000.0001) %MON dynstat_wvel_max             =   1.7002158814892E-03
(PID.TID 0000.0001) %MON dynstat_wvel_min             =  -1.6371761787370E-03
(PID.TID 0000.0001) %MON dynstat_wvel_mean            =   6.9492160442155E-09
(PID.TID 0000.0001) %MON dynstat_wvel_sd              =   2.7226497576234E-05
(PID.TID 0000.0001) %MON dynstat_wvel_del2            =   1.1114708439192E-07
(PID.TID 0000.0001) %MON dynstat_theta_max            =   1.2000000000000E+00
(PID.TID 0000.0001) %MON dynstat_theta_min            =  -1.0000000000000E+00
(PID.TID 0000.0001) %MON dynstat_theta_mean           =   5.6844135418831E-01
(PID.TID 0000.0001) %MON dynstat_theta_sd             =   8.6822676069801E-01
(PID.TID 0000.0001) %MON dynstat_theta_del2           =   4.6880138473914E-06
(PID.TID 0000.0001) %MON dynstat_salt_max             =   3.4700000000000E+01
(PID.TID 0000.0001) %MON dynstat_salt_min             =   3.4000000000000E+01
(PID.TID 0000.0001) %MON dynstat_salt_mean            =   3.4498990645719E+01
(PID.TID 0000.0001) %MON dynstat_salt_sd              =   2.7623053900654E-01
(PID.TID 0000.0001) %MON dynstat_salt_del2            =   1.8561062923863E-06
(PID.TID 0000.0001) %MON advcfl_uvel_max              =   4.5440245858481E-03
(PID.TID 0000.0001) %MON advcfl_vvel_max              =   3.1659046635751E-03
(PID.TID 0000.0001) %MON advcfl_wvel_max              =   8.5010794074458E-03
(PID.TID 0000.0001) %MON advcfl_W_hf_max              =   8.5010794074458E-03
(PID.TID 0000.0001) %MON pe_b_mean                    =  -8.2961648832322E-01
(PID.TID 0000.0001) %MON ke_max                       =   8.2615800018182E-04
(PID.TID 0000.0001) %MON ke_mean                      =   1.0929028284117E-06
(PID.TID 0000.0001) %MON ke_vol                       =   4.2724682161130E+12
(PID.TID 0000.0001) // =======================================================
(PID.TID 0000.0001) // End MONITOR dynamic field statistics
(PID.TID 0000.0001) // =======================================================
(PID.TID 0000.0001) // =======================================================
(PID.TID 0000.0001) // Begin OBCS MONITOR field statistics
(PID.TID 0000.0001) // =======================================================
(PID.TID 0000.0001) %MON obc_N_vVel_max               =   1.4801890863015E-05
(PID.TID 0000.0001) %MON obc_N_vVel_min               =   1.4801890863014E-05
(PID.TID 0000.0001) %MON obc_N_vVel_mean              =   1.4801890863015E-05
(PID.TID 0000.0001) %MON obc_N_vVel_sd                =  -5.5059209523061E-24
(PID.TID 0000.0001) %MON obc_N_vVel_Int               =   9.7692479695897E+02
(PID.TID 0000.0001) // =======================================================
(PID.TID 0000.0001) // End OBCS MONITOR field statistics
(PID.TID 0000.0001) // =======================================================
 cg2d: Sum(rhs),rhsMax =   4.50729056289081E+00  2.99955320712102E+02
(PID.TID 0000.0001)      cg2d_init_res =   9.35771932598298E-06
(PID.TID 0000.0001)      cg2d_iters(min,last) =      -1      84
(PID.TID 0000.0001)      cg2d_last_res =   8.56769980294621E-12
(PID.TID 0000.0001) // =======================================================
(PID.TID 0000.0001) // Begin MONITOR dynamic field statistics
(PID.TID 0000.0001) // =======================================================
(PID.TID 0000.0001) %MON time_tsnumber                =                  1329
(PID.TID 0000.0001) %MON time_secondsf                =   1.3290000000000E+05
(PID.TID 0000.0001) %MON dynstat_eta_max              =   5.7984396848684E+00
(PID.TID 0000.0001) %MON dynstat_eta_min              =  -1.4189676721857E+01
(PID.TID 0000.0001) %MON dynstat_eta_mean             =  -2.5036773821010E+00
(PID.TID 0000.0001) %MON dynstat_eta_sd               =   4.9499072269492E+00
(PID.TID 0000.0001) %MON dynstat_eta_del2             =   2.0716191235058E-01
(PID.TID 0000.0001) %MON dynstat_uvel_max             =   9.8755366672840E-03
(PID.TID 0000.0001) %MON dynstat_uvel_min             =  -4.5544135942986E-02
(PID.TID 0000.0001) %MON dynstat_uvel_mean            =  -1.0899222279934E-07
(PID.TID 0000.0001) %MON dynstat_uvel_sd              =   1.3109165991859E-03
(PID.TID 0000.0001) %MON dynstat_uvel_del2            =   1.9527624823334E-06
(PID.TID 0000.0001) %MON dynstat_vvel_max             =   3.1709851136357E-02
(PID.TID 0000.0001) %MON dynstat_vvel_min             =  -1.5153170526691E-02
(PID.TID 0000.0001) %MON dynstat_vvel_mean            =   1.5056668571585E-05
(PID.TID 0000.0001) %MON dynstat_vvel_sd              =   7.1463508942785E-04
(PID.TID 0000.0001) %MON dynstat_vvel_del2            =   1.4728519786688E-06
(PID.TID 0000.0001) %MON dynstat_wvel_max             =   1.7033773201521E-03
(PID.TID 0000.0001) %MON dynstat_wvel_min             =  -1.6403077788581E-03
(PID.TID 0000.0001) %MON dynstat_wvel_mean            =   6.9449205244613E-09
(PID.TID 0000.0001) %MON dynstat_wvel_sd              =   2.7260172989357E-05
(PID.TID 0000.0001) %MON dynstat_wvel_del2            =   1.1129141179315E-07
(PID.TID 0000.0001) %MON dynstat_theta_max            =   1.2000000000000E+00
(PID.TID 0000.0001) %MON dynstat_theta_min            =  -1.0000000000000E+00
(PID.TID 0000.0001) %MON dynstat_theta_mean           =   5.6843999426538E-01
(PID.TID 0000.0001) %MON dynstat_theta_sd             =   8.6822603388861E-01
(PID.TID 0000.0001) %MON dynstat_theta_del2           =   4.6971961306326E-06
(PID.TID 0000.0001) %MON dynstat_salt_max             =   3.4700000000000E+01
(PID.TID 0000.0001) %MON dynstat_salt_min             =   3.4000000000000E+01
(PID.TID 0000.0001) %MON dynstat_salt_mean            =   3.4498990101142E+01
(PID.TID 0000.0001) %MON dynstat_salt_sd              =   2.7623026008294E-01
(PID.TID 0000.0001) %MON dynstat_salt_del2            =   1.8597578581405E-06
(PID.TID 0000.0001) %MON advcfl_uvel_max              =   4.5544135942986E-03
(PID.TID 0000.0001) %MON advcfl_vvel_max              =   3.1709851136357E-03
(PID.TID 0000.0001) %MON advcfl_wvel_max              =   8.5168866007604E-03
(PID.TID 0000.0001) %MON advcfl_W_hf_max              =   8.5168866007604E-03
(PID.TID 0000.0001) %MON pe_b_mean                    =  -8.2961736231233E-01
(PID.TID 0000.0001) %MON ke_max                       =   8.3030212845325E-04
(PID.TID 0000.0001) %MON ke_mean                      =   1.0976698717859E-06
(PID.TID 0000.0001) %MON ke_vol                       =   4.2724681861231E+12
(PID.TID 0000.0001) // =======================================================
(PID.TID 0000.0001) // End MONITOR dynamic field statistics
(PID.TID 0000.0001) // =======================================================
(PID.TID 0000.0001) // =======================================================
(PID.TID 0000.0001) // Begin OBCS MONITOR field statistics
(PID.TID 0000.0001) // =======================================================
(PID.TID 0000.0001) %MON obc_N_vVel_max               =   1.4787029010417E-05
(PID.TID 0000.0001) %MON obc_N_vVel_min               =   1.4787029010417E-05
(PID.TID 0000.0001) %MON obc_N_vVel_mean              =   1.4787029010417E-05
(PID.TID 0000.0001) %MON obc_N_vVel_sd                =  -2.0860461072822E-23
(PID.TID 0000.0001) %MON obc_N_vVel_Int               =   9.7594391468754E+02
(PID.TID 0000.0001) // =======================================================
(PID.TID 0000.0001) // End OBCS MONITOR field statistics
(PID.TID 0000.0001) // =======================================================
 cg2d: Sum(rhs),rhsMax =   4.50729843074070E+00  2.99955393451258E+02
(PID.TID 0000.0001)      cg2d_init_res =   9.36845861552970E-06
(PID.TID 0000.0001)      cg2d_iters(min,last) =      -1      84
(PID.TID 0000.0001)      cg2d_last_res =   8.58608458795129E-12
(PID.TID 0000.0001) // =======================================================
(PID.TID 0000.0001) // Begin MONITOR dynamic field statistics
(PID.TID 0000.0001) // =======================================================
(PID.TID 0000.0001) %MON time_tsnumber                =                  1330
(PID.TID 0000.0001) %MON time_secondsf                =   1.3300000000000E+05
(PID.TID 0000.0001) %MON dynstat_eta_max              =   5.7984599419675E+00
(PID.TID 0000.0001) %MON dynstat_eta_min              =  -1.4189706285776E+01
(PID.TID 0000.0001) %MON dynstat_eta_mean             =  -2.5036823596205E+00
(PID.TID 0000.0001) %MON dynstat_eta_sd               =   4.9499093516841E+00
(PID.TID 0000.0001) %MON dynstat_eta_del2             =   2.0716195884901E-01
(PID.TID 0000.0001) %MON dynstat_uvel_max             =   9.8993254650388E-03
(PID.TID 0000.0001) %MON dynstat_uvel_min             =  -4.5648161846021E-02
(PID.TID 0000.0001) %MON dynstat_uvel_mean            =  -1.0906752612307E-07
(PID.TID 0000.0001) %MON dynstat_uvel_sd              =   1.3138766951299E-03
(PID.TID 0000.0001) %MON dynstat_uvel_del2            =   1.9574968512254E-06
(PID.TID 0000.0001) %MON dynstat_vvel_max             =   3.1760650770967E-02
(PID.TID 0000.0001) %MON dynstat_vvel_min             =  -1.5190945707600E-02
(PID.TID 0000.0001) %MON dynstat_vvel_mean            =   1.5043091111943E-05
(PID.TID 0000.0001) %MON dynstat_vvel_sd              =   7.1600453294339E-04
(PID.TID 0000.0001) %MON dynstat_vvel_del2            =   1.4758001507604E-06
(PID.TID 0000.0001) %MON dynstat_wvel_max             =   1.7065396991196E-03
(PID.TID 0000.0001) %MON dynstat_wvel_min             =  -1.6434411451774E-03
(PID.TID 0000.0001) %MON dynstat_wvel_mean            =   6.9452589065151E-09
(PID.TID 0000.0001) %MON dynstat_wvel_sd              =   2.7291967261049E-05
(PID.TID 0000.0001) %MON dynstat_wvel_del2            =   1.1142475126129E-07
(PID.TID 0000.0001) %MON dynstat_theta_max            =   1.2000000000000E+00
(PID.TID 0000.0001) %MON dynstat_theta_min            =  -1.0000000000000E+00
(PID.TID 0000.0001) %MON dynstat_theta_mean           =   5.6843863196348E-01
(PID.TID 0000.0001) %MON dynstat_theta_sd             =   8.6822530591690E-01
(PID.TID 0000.0001) %MON dynstat_theta_del2           =   4.7063962262627E-06
(PID.TID 0000.0001) %MON dynstat_salt_max             =   3.4700000000000E+01
(PID.TID 0000.0001) %MON dynstat_salt_min             =   3.4000000000000E+01
(PID.TID 0000.0001) %MON dynstat_salt_mean            =   3.4498989555611E+01
(PID.TID 0000.0001) %MON dynstat_salt_sd              =   2.7622998072255E-01
(PID.TID 0000.0001) %MON dynstat_salt_del2            =   1.8634159822696E-06
(PID.TID 0000.0001) %MON advcfl_uvel_max              =   4.5648161846021E-03
(PID.TID 0000.0001) %MON advcfl_vvel_max              =   3.1760650770967E-03
(PID.TID 0000.0001) %MON advcfl_wvel_max              =   8.5326984955982E-03
(PID.TID 0000.0001) %MON advcfl_W_hf_max              =   8.5326984955982E-03
(PID.TID 0000.0001) %MON pe_b_mean                    =  -8.2961822598055E-01
(PID.TID 0000.0001) %MON ke_max                       =   8.3446317566239E-04
(PID.TID 0000.0001) %MON ke_mean                      =   1.1024570293087E-06
(PID.TID 0000.0001) %MON ke_vol                       =   4.2724681563503E+12
(PID.TID 0000.0001) // =======================================================
(PID.TID 0000.0001) // End MONITOR dynamic field statistics
(PID.TID 0000.0001) // =======================================================
(PID.TID 0000.0001) // =======================================================
(PID.TID 0000.0001) // Begin OBCS MONITOR field statistics
(PID.TID 0000.0001) // =======================================================
(PID.TID 0000.0001) %MON obc_N_vVel_max               =   1.4773829819509E-05
(PID.TID 0000.0001) %MON obc_N_vVel_min               =   1.4773829819509E-05
(PID.TID 0000.0001) %MON obc_N_vVel_mean              =   1.4773829819509E-05
(PID.TID 0000.0001) %MON obc_N_vVel_sd                =  -9.3057818912216E-25
(PID.TID 0000.0001) %MON obc_N_vVel_Int               =   9.7507276808761E+02
(PID.TID 0000.0001) // =======================================================
(PID.TID 0000.0001) // End OBCS MONITOR field statistics
(PID.TID 0000.0001) // =======================================================
 cg2d: Sum(rhs),rhsMax =   4.50730623804073E+00  2.99955466306461E+02
(PID.TID 0000.0001)      cg2d_init_res =   9.38037856203311E-06
(PID.TID 0000.0001)      cg2d_iters(min,last) =      -1      84
(PID.TID 0000.0001)      cg2d_last_res =   8.60548996276740E-12
(PID.TID 0000.0001) // =======================================================
(PID.TID 0000.0001) // Begin MONITOR dynamic field statistics
(PID.TID 0000.0001) // =======================================================
(PID.TID 0000.0001) %MON time_tsnumber                =                  1331
(PID.TID 0000.0001) %MON time_secondsf                =   1.3310000000000E+05
(PID.TID 0000.0001) %MON dynstat_eta_max              =   5.7984803060629E+00
(PID.TID 0000.0001) %MON dynstat_eta_min              =  -1.4189735845658E+01
(PID.TID 0000.0001) %MON dynstat_eta_mean             =  -2.5036873044769E+00
(PID.TID 0000.0001) %MON dynstat_eta_sd               =   4.9499114684435E+00
(PID.TID 0000.0001) %MON dynstat_eta_del2             =   2.0716200541705E-01
(PID.TID 0000.0001) %MON dynstat_uvel_max             =   9.9231576985535E-03
(PID.TID 0000.0001) %MON dynstat_uvel_min             =  -4.5752323441436E-02
(PID.TID 0000.0001) %MON dynstat_uvel_mean            =  -1.0915415044243E-07
(PID.TID 0000.0001) %MON dynstat_uvel_sd              =   1.3168426949132E-03
(PID.TID 0000.0001) %MON dynstat_uvel_del2            =   1.9622428563002E-06
(PID.TID 0000.0001) %MON dynstat_vvel_max             =   3.1811445331258E-02
(PID.TID 0000.0001) %MON dynstat_vvel_min             =  -1.5228802509061E-02
(PID.TID 0000.0001) %MON dynstat_vvel_mean            =   1.5031844399021E-05
(PID.TID 0000.0001) %MON dynstat_vvel_sd              =   7.1737705527460E-04
(PID.TID 0000.0001) %MON dynstat_vvel_del2            =   1.4787527418594E-06
(PID.TID 0000.0001) %MON dynstat_wvel_max             =   1.7097030008137E-03
(PID.TID 0000.0001) %MON dynstat_wvel_min             =  -1.6465762609631E-03
(PID.TID 0000.0001) %MON dynstat_wvel_mean            =   6.9502239213105E-09
(PID.TID 0000.0001) %MON dynstat_wvel_sd              =   2.7322518289025E-05
(PID.TID 0000.0001) %MON dynstat_wvel_del2            =   1.1155052121391E-07
(PID.TID 0000.0001) %MON dynstat_theta_max            =   1.2000000000000E+00
(PID.TID 0000.0001) %MON dynstat_theta_min            =  -1.0000000000000E+00
(PID.TID 0000.0001) %MON dynstat_theta_mean           =   5.6843726727525E-01
(PID.TID 0000.0001) %MON dynstat_theta_sd             =   8.6822457678465E-01
(PID.TID 0000.0001) %MON dynstat_theta_del2           =   4.7156126671394E-06
(PID.TID 0000.0001) %MON dynstat_salt_max             =   3.4700000000000E+01
(PID.TID 0000.0001) %MON dynstat_salt_min             =   3.4000000000000E+01
(PID.TID 0000.0001) %MON dynstat_salt_mean            =   3.4498989009123E+01
(PID.TID 0000.0001) %MON dynstat_salt_sd              =   2.7622970092591E-01
(PID.TID 0000.0001) %MON dynstat_salt_del2            =   1.8670802532175E-06
(PID.TID 0000.0001) %MON advcfl_uvel_max              =   4.5752323441436E-03
(PID.TID 0000.0001) %MON advcfl_vvel_max              =   3.1811445331258E-03
(PID.TID 0000.0001) %MON advcfl_wvel_max              =   8.5485150040686E-03
(PID.TID 0000.0001) %MON advcfl_W_hf_max              =   8.5485150040686E-03
(PID.TID 0000.0001) %MON pe_b_mean                    =  -8.2961907992197E-01
(PID.TID 0000.0001) %MON ke_max                       =   8.3864118036994E-04
(PID.TID 0000.0001) %MON ke_mean                      =   1.1072645144787E-06
(PID.TID 0000.0001) %MON ke_vol                       =   4.2724681267839E+12
(PID.TID 0000.0001) // =======================================================
(PID.TID 0000.0001) // End MONITOR dynamic field statistics
(PID.TID 0000.0001) // =======================================================
(PID.TID 0000.0001) // =======================================================
(PID.TID 0000.0001) // Begin OBCS MONITOR field statistics
(PID.TID 0000.0001) // =======================================================
(PID.TID 0000.0001) %MON obc_N_vVel_max               =   1.4762528881698E-05
(PID.TID 0000.0001) %MON obc_N_vVel_min               =   1.4762528881697E-05
(PID.TID 0000.0001) %MON obc_N_vVel_mean              =   1.4762528881698E-05
(PID.TID 0000.0001) %MON obc_N_vVel_sd                =  -7.5738724836887E-24
(PID.TID 0000.0001) %MON obc_N_vVel_Int               =   9.7432690619204E+02
(PID.TID 0000.0001) // =======================================================
(PID.TID 0000.0001) // End OBCS MONITOR field statistics
(PID.TID 0000.0001) // =======================================================
 cg2d: Sum(rhs),rhsMax =   4.50731398831649E+00  2.99955539317869E+02
(PID.TID 0000.0001)      cg2d_init_res =   9.39348793437353E-06
(PID.TID 0000.0001)      cg2d_iters(min,last) =      -1      84
(PID.TID 0000.0001)      cg2d_last_res =   8.62576743660036E-12
(PID.TID 0000.0001) // =======================================================
(PID.TID 0000.0001) // Begin MONITOR dynamic field statistics
(PID.TID 0000.0001) // =======================================================
(PID.TID 0000.0001) %MON time_tsnumber                =                  1332
(PID.TID 0000.0001) %MON time_secondsf                =   1.3320000000000E+05
(PID.TID 0000.0001) %MON dynstat_eta_max              =   5.7985007723372E+00
(PID.TID 0000.0001) %MON dynstat_eta_min              =  -1.4189765404217E+01
(PID.TID 0000.0001) %MON dynstat_eta_mean             =  -2.5036922189638E+00
(PID.TID 0000.0001) %MON dynstat_eta_sd               =   4.9499135781345E+00
(PID.TID 0000.0001) %MON dynstat_eta_del2             =   2.0716205205560E-01
(PID.TID 0000.0001) %MON dynstat_uvel_max             =   9.9470334031881E-03
(PID.TID 0000.0001) %MON dynstat_uvel_min             =  -4.5856620593503E-02
(PID.TID 0000.0001) %MON dynstat_uvel_mean            =  -1.0925003202896E-07
(PID.TID 0000.0001) %MON dynstat_uvel_sd              =   1.3198146072852E-03
(PID.TID 0000.0001) %MON dynstat_uvel_del2            =   1.9670005252571E-06
(PID.TID 0000.0001) %MON dynstat_vvel_max             =   3.1862234595909E-02
(PID.TID 0000.0001) %MON dynstat_vvel_min             =  -1.5266741021989E-02
(PID.TID 0000.0001) %MON dynstat_vvel_mean            =   1.5023125457793E-05
(PID.TID 0000.0001) %MON dynstat_vvel_sd              =   7.1875285710836E-04
(PID.TID 0000.0001) %MON dynstat_vvel_del2            =   1.4817107533310E-06
(PID.TID 0000.0001) %MON dynstat_wvel_max             =   1.7128672068012E-03
(PID.TID 0000.0001) %MON dynstat_wvel_min             =  -1.6497131104751E-03
(PID.TID 0000.0001) %MON dynstat_wvel_mean            =   6.9597005975543E-09
(PID.TID 0000.0001) %MON dynstat_wvel_sd              =   2.7352551914794E-05
(PID.TID 0000.0001) %MON dynstat_wvel_del2            =   1.1167264704346E-07
(PID.TID 0000.0001) %MON dynstat_theta_max            =   1.2000000000000E+00
(PID.TID 0000.0001) %MON dynstat_theta_min            =  -1.0000000000000E+00
(PID.TID 0000.0001) %MON dynstat_theta_mean           =   5.6843590019329E-01
(PID.TID 0000.0001) %MON dynstat_theta_sd             =   8.6822384649327E-01
(PID.TID 0000.0001) %MON dynstat_theta_del2           =   4.7248439038290E-06
(PID.TID 0000.0001) %MON dynstat_salt_max             =   3.4700000000000E+01
(PID.TID 0000.0001) %MON dynstat_salt_min             =   3.4000000000000E+01
(PID.TID 0000.0001) %MON dynstat_salt_mean            =   3.4498988461675E+01
(PID.TID 0000.0001) %MON dynstat_salt_sd              =   2.7622942069347E-01
(PID.TID 0000.0001) %MON dynstat_salt_del2            =   1.8707502383266E-06
(PID.TID 0000.0001) %MON advcfl_uvel_max              =   4.5856620593503E-03
(PID.TID 0000.0001) %MON advcfl_vvel_max              =   3.1862234595909E-03
(PID.TID 0000.0001) %MON advcfl_wvel_max              =   8.5643360340062E-03
(PID.TID 0000.0001) %MON advcfl_W_hf_max              =   8.5643360340062E-03
(PID.TID 0000.0001) %MON pe_b_mean                    =  -8.2961992477714E-01
(PID.TID 0000.0001) %MON ke_max                       =   8.4283618085173E-04
(PID.TID 0000.0001) %MON ke_mean                      =   1.1120925498729E-06
(PID.TID 0000.0001) %MON ke_vol                       =   4.2724680974114E+12
(PID.TID 0000.0001) // =======================================================
(PID.TID 0000.0001) // End MONITOR dynamic field statistics
(PID.TID 0000.0001) // =======================================================
(PID.TID 0000.0001) // =======================================================
(PID.TID 0000.0001) // Begin OBCS MONITOR field statistics
(PID.TID 0000.0001) // =======================================================
(PID.TID 0000.0001) %MON obc_N_vVel_max               =   1.4753326411162E-05
(PID.TID 0000.0001) %MON obc_N_vVel_min               =   1.4753326411162E-05
(PID.TID 0000.0001) %MON obc_N_vVel_mean              =   1.4753326411162E-05
(PID.TID 0000.0001) %MON obc_N_vVel_sd                =   2.2737367544323E-12
(PID.TID 0000.0001) %MON obc_N_vVel_Int               =   9.7371954313670E+02
(PID.TID 0000.0001) // =======================================================
(PID.TID 0000.0001) // End OBCS MONITOR field statistics
(PID.TID 0000.0001) // =======================================================
 cg2d: Sum(rhs),rhsMax =   4.50732168544368E+00  2.99955612523390E+02
(PID.TID 0000.0001)      cg2d_init_res =   9.40777205360913E-06
(PID.TID 0000.0001)      cg2d_iters(min,last) =      -1      84
(PID.TID 0000.0001)      cg2d_last_res =   8.64674770959394E-12
(PID.TID 0000.0001) // =======================================================
(PID.TID 0000.0001) // Begin MONITOR dynamic field statistics
(PID.TID 0000.0001) // =======================================================
(PID.TID 0000.0001) %MON time_tsnumber                =                  1333
(PID.TID 0000.0001) %MON time_secondsf                =   1.3330000000000E+05
(PID.TID 0000.0001) %MON dynstat_eta_max              =   5.7985213357181E+00
(PID.TID 0000.0001) %MON dynstat_eta_min              =  -1.4189794964239E+01
(PID.TID 0000.0001) %MON dynstat_eta_mean             =  -2.5036971055504E+00
(PID.TID 0000.0001) %MON dynstat_eta_sd               =   4.9499156816818E+00
(PID.TID 0000.0001) %MON dynstat_eta_del2             =   2.0716209876547E-01
(PID.TID 0000.0001) %MON dynstat_uvel_max             =   9.9709526181044E-03
(PID.TID 0000.0001) %MON dynstat_uvel_min             =  -4.5961053156699E-02
(PID.TID 0000.0001) %MON dynstat_uvel_mean            =  -1.0935290319322E-07
(PID.TID 0000.0001) %MON dynstat_uvel_sd              =   1.3227924411079E-03
(PID.TID 0000.0001) %MON dynstat_uvel_del2            =   1.9717698859733E-06
(PID.TID 0000.0001) %MON dynstat_vvel_max             =   3.1913018332957E-02
(PID.TID 0000.0001) %MON dynstat_vvel_min             =  -1.5304761347688E-02
(PID.TID 0000.0001) %MON dynstat_vvel_mean            =   1.5017082529793E-05
(PID.TID 0000.0001) %MON dynstat_vvel_sd              =   7.2013214267328E-04
(PID.TID 0000.0001) %MON dynstat_vvel_del2            =   1.4846751795177E-06
(PID.TID 0000.0001) %MON dynstat_wvel_max             =   1.7160322986113E-03
(PID.TID 0000.0001) %MON dynstat_wvel_min             =  -1.6528516775455E-03
(PID.TID 0000.0001) %MON dynstat_wvel_mean            =   6.9734981586305E-09
(PID.TID 0000.0001) %MON dynstat_wvel_sd              =   2.7382832124876E-05
(PID.TID 0000.0001) %MON dynstat_wvel_del2            =   1.1179524403921E-07
(PID.TID 0000.0001) %MON dynstat_theta_max            =   1.2000000000000E+00
(PID.TID 0000.0001) %MON dynstat_theta_min            =  -1.0000000000000E+00
(PID.TID 0000.0001) %MON dynstat_theta_mean           =   5.6843453071007E-01
(PID.TID 0000.0001) %MON dynstat_theta_sd             =   8.6822311504458E-01
(PID.TID 0000.0001) %MON dynstat_theta_del2           =   4.7340883458864E-06
(PID.TID 0000.0001) %MON dynstat_salt_max             =   3.4700000000000E+01
(PID.TID 0000.0001) %MON dynstat_salt_min             =   3.4000000000000E+01
(PID.TID 0000.0001) %MON dynstat_salt_mean            =   3.4498987913265E+01
(PID.TID 0000.0001) %MON dynstat_salt_sd              =   2.7622914002601E-01
(PID.TID 0000.0001) %MON dynstat_salt_del2            =   1.8744255984700E-06
(PID.TID 0000.0001) %MON advcfl_uvel_max              =   4.5961053156699E-03
(PID.TID 0000.0001) %MON advcfl_vvel_max              =   3.1913018332957E-03
(PID.TID 0000.0001) %MON advcfl_wvel_max              =   8.5801614930564E-03
(PID.TID 0000.0001) %MON advcfl_W_hf_max              =   8.5801614930564E-03
(PID.TID 0000.0001) %MON pe_b_mean                    =  -8.2962076122055E-01
(PID.TID 0000.0001) %MON ke_max                       =   8.4704821508428E-04
(PID.TID 0000.0001) %MON ke_mean                      =   1.1169413613878E-06
(PID.TID 0000.0001) %MON ke_vol                       =   4.2724680682194E+12
(PID.TID 0000.0001) // =======================================================
(PID.TID 0000.0001) // End MONITOR dynamic field statistics
(PID.TID 0000.0001) // =======================================================
(PID.TID 0000.0001) // =======================================================
(PID.TID 0000.0001) // Begin OBCS MONITOR field statistics
(PID.TID 0000.0001) // =======================================================
(PID.TID 0000.0001) %MON obc_N_vVel_max               =   1.4746381077066E-05
(PID.TID 0000.0001) %MON obc_N_vVel_min               =   1.4746381077066E-05
(PID.TID 0000.0001) %MON obc_N_vVel_mean              =   1.4746381077066E-05
(PID.TID 0000.0001) %MON obc_N_vVel_sd                =   1.6708484573313E-12
(PID.TID 0000.0001) %MON obc_N_vVel_Int               =   9.7326115108636E+02
(PID.TID 0000.0001) // =======================================================
(PID.TID 0000.0001) // End OBCS MONITOR field statistics
(PID.TID 0000.0001) // =======================================================
 cg2d: Sum(rhs),rhsMax =   4.50732933357271E+00  2.99955685958018E+02
(PID.TID 0000.0001)      cg2d_init_res =   9.42320364828484E-06
(PID.TID 0000.0001)      cg2d_iters(min,last) =      -1      84
(PID.TID 0000.0001)      cg2d_last_res =   8.66824790288663E-12
(PID.TID 0000.0001) // =======================================================
(PID.TID 0000.0001) // Begin MONITOR dynamic field statistics
(PID.TID 0000.0001) // =======================================================
(PID.TID 0000.0001) %MON time_tsnumber                =                  1334
(PID.TID 0000.0001) %MON time_secondsf                =   1.3340000000000E+05
(PID.TID 0000.0001) %MON dynstat_eta_max              =   5.7985419909781E+00
(PID.TID 0000.0001) %MON dynstat_eta_min              =  -1.4189824528533E+01
(PID.TID 0000.0001) %MON dynstat_eta_mean             =  -2.5037019668343E+00
(PID.TID 0000.0001) %MON dynstat_eta_sd               =   4.9499177800080E+00
(PID.TID 0000.0001) %MON dynstat_eta_del2             =   2.0716214554725E-01
(PID.TID 0000.0001) %MON dynstat_uvel_max             =   9.9949153853665E-03
(PID.TID 0000.0001) %MON dynstat_uvel_min             =  -4.6065620975456E-02
(PID.TID 0000.0001) %MON dynstat_uvel_mean            =  -1.0946032306941E-07
(PID.TID 0000.0001) %MON dynstat_uvel_sd              =   1.3257762053381E-03
(PID.TID 0000.0001) %MON dynstat_uvel_del2            =   1.9765509662671E-06
(PID.TID 0000.0001) %MON dynstat_vvel_max             =   3.1963796299918E-02
(PID.TID 0000.0001) %MON dynstat_vvel_min             =  -1.5342863597867E-02
(PID.TID 0000.0001) %MON dynstat_vvel_mean            =   1.5013812668004E-05
(PID.TID 0000.0001) %MON dynstat_vvel_sd              =   7.2151511133414E-04
(PID.TID 0000.0001) %MON dynstat_vvel_del2            =   1.4876469307666E-06
(PID.TID 0000.0001) %MON dynstat_wvel_max             =   1.7191982577791E-03
(PID.TID 0000.0001) %MON dynstat_wvel_min             =  -1.6559919461668E-03
(PID.TID 0000.0001) %MON dynstat_wvel_mean            =   6.9913457728628E-09
(PID.TID 0000.0001) %MON dynstat_wvel_sd              =   2.7414109646181E-05
(PID.TID 0000.0001) %MON dynstat_wvel_del2            =   1.1192229165266E-07
(PID.TID 0000.0001) %MON dynstat_theta_max            =   1.2000000000000E+00
(PID.TID 0000.0001) %MON dynstat_theta_min            =  -1.0000000000000E+00
(PID.TID 0000.0001) %MON dynstat_theta_mean           =   5.6843315881804E-01
(PID.TID 0000.0001) %MON dynstat_theta_sd             =   8.6822238244062E-01
(PID.TID 0000.0001) %MON dynstat_theta_del2           =   4.7433445146145E-06
(PID.TID 0000.0001) %MON dynstat_salt_max             =   3.4700000000000E+01
(PID.TID 0000.0001) %MON dynstat_salt_min             =   3.4000000000000E+01
(PID.TID 0000.0001) %MON dynstat_salt_mean            =   3.4498987363889E+01
(PID.TID 0000.0001) %MON dynstat_salt_sd              =   2.7622885892393E-01
(PID.TID 0000.0001) %MON dynstat_salt_del2            =   1.8781058543838E-06
(PID.TID 0000.0001) %MON advcfl_uvel_max              =   4.6065620975456E-03
(PID.TID 0000.0001) %MON advcfl_vvel_max              =   3.1963796299918E-03
(PID.TID 0000.0001) %MON advcfl_wvel_max              =   8.5959912888953E-03
(PID.TID 0000.0001) %MON advcfl_W_hf_max              =   8.5959912888953E-03
(PID.TID 0000.0001) %MON pe_b_mean                    =  -8.2962158994757E-01
(PID.TID 0000.0001) %MON ke_max                       =   8.5127732072724E-04
(PID.TID 0000.0001) %MON ke_mean                      =   1.1218111721555E-06
(PID.TID 0000.0001) %MON ke_vol                       =   4.2724680391930E+12
(PID.TID 0000.0001) // =======================================================
(PID.TID 0000.0001) // End MONITOR dynamic field statistics
(PID.TID 0000.0001) // =======================================================
(PID.TID 0000.0001) // =======================================================
(PID.TID 0000.0001) // Begin OBCS MONITOR field statistics
(PID.TID 0000.0001) // =======================================================
(PID.TID 0000.0001) %MON obc_N_vVel_max               =   1.4741808232640E-05
(PID.TID 0000.0001) %MON obc_N_vVel_min               =   1.4741808232639E-05
(PID.TID 0000.0001) %MON obc_N_vVel_mean              =   1.4741808232640E-05
(PID.TID 0000.0001) %MON obc_N_vVel_sd                =   1.4016254688088E-12
(PID.TID 0000.0001) %MON obc_N_vVel_Int               =   9.7295934335421E+02
(PID.TID 0000.0001) // =======================================================
(PID.TID 0000.0001) // End OBCS MONITOR field statistics
(PID.TID 0000.0001) // =======================================================
 cg2d: Sum(rhs),rhsMax =   4.50733693704900E+00  2.99955759653186E+02
(PID.TID 0000.0001)      cg2d_init_res =   9.43971890753190E-06
(PID.TID 0000.0001)      cg2d_iters(min,last) =      -1      84
(PID.TID 0000.0001)      cg2d_last_res =   8.69006813546387E-12
(PID.TID 0000.0001) // =======================================================
(PID.TID 0000.0001) // Begin MONITOR dynamic field statistics
(PID.TID 0000.0001) // =======================================================
(PID.TID 0000.0001) %MON time_tsnumber                =                  1335
(PID.TID 0000.0001) %MON time_secondsf                =   1.3350000000000E+05
(PID.TID 0000.0001) %MON dynstat_eta_max              =   5.7985627328409E+00
(PID.TID 0000.0001) %MON dynstat_eta_min              =  -1.4189854099873E+01
(PID.TID 0000.0001) %MON dynstat_eta_mean             =  -2.5037068054915E+00
(PID.TID 0000.0001) %MON dynstat_eta_sd               =   4.9499198740218E+00
(PID.TID 0000.0001) %MON dynstat_eta_del2             =   2.0716219240181E-01
(PID.TID 0000.0001) %MON dynstat_uvel_max             =   1.0018921750149E-02
(PID.TID 0000.0001) %MON dynstat_uvel_min             =  -4.6170323883650E-02
(PID.TID 0000.0001) %MON dynstat_uvel_mean            =  -1.0956972169505E-07
(PID.TID 0000.0001) %MON dynstat_uvel_sd              =   1.3287659090903E-03
(PID.TID 0000.0001) %MON dynstat_uvel_del2            =   1.9813437946405E-06
(PID.TID 0000.0001) %MON dynstat_vvel_max             =   3.2014568243512E-02
(PID.TID 0000.0001) %MON dynstat_vvel_min             =  -1.5381047894570E-02
(PID.TID 0000.0001) %MON dynstat_vvel_mean            =   1.5013360271832E-05
(PID.TID 0000.0001) %MON dynstat_vvel_sd              =   7.2290194942660E-04
(PID.TID 0000.0001) %MON dynstat_vvel_del2            =   1.4906267636655E-06
(PID.TID 0000.0001) %MON dynstat_wvel_max             =   1.7223650658571E-03
(PID.TID 0000.0001) %MON dynstat_wvel_min             =  -1.6591338998733E-03
(PID.TID 0000.0001) %MON dynstat_wvel_mean            =   7.0128980152910E-09
(PID.TID 0000.0001) %MON dynstat_wvel_sd              =   2.7447072913571E-05
(PID.TID 0000.0001) %MON dynstat_wvel_del2            =   1.1205732677588E-07
(PID.TID 0000.0001) %MON dynstat_theta_max            =   1.2000000000000E+00
(PID.TID 0000.0001) %MON dynstat_theta_min            =  -1.0000000000000E+00
(PID.TID 0000.0001) %MON dynstat_theta_mean           =   5.6843178450966E-01
(PID.TID 0000.0001) %MON dynstat_theta_sd             =   8.6822164868141E-01
(PID.TID 0000.0001) %MON dynstat_theta_del2           =   4.7526110859919E-06
(PID.TID 0000.0001) %MON dynstat_salt_max             =   3.4700000000000E+01
(PID.TID 0000.0001) %MON dynstat_salt_min             =   3.4000000000000E+01
(PID.TID 0000.0001) %MON dynstat_salt_mean            =   3.4498986813546E+01
(PID.TID 0000.0001) %MON dynstat_salt_sd              =   2.7622857738730E-01
(PID.TID 0000.0001) %MON dynstat_salt_del2            =   1.8817906288489E-06
(PID.TID 0000.0001) %MON advcfl_uvel_max              =   4.6170323883650E-03
(PID.TID 0000.0001) %MON advcfl_vvel_max              =   3.2014568243512E-03
(PID.TID 0000.0001) %MON advcfl_wvel_max              =   8.6118253292855E-03
(PID.TID 0000.0001) %MON advcfl_W_hf_max              =   8.6118253292855E-03
(PID.TID 0000.0001) %MON pe_b_mean                    =  -8.2962241166118E-01
(PID.TID 0000.0001) %MON ke_max                       =   8.5552353510926E-04
(PID.TID 0000.0001) %MON ke_mean                      =   1.1267021966826E-06
(PID.TID 0000.0001) %MON ke_vol                       =   4.2724680103170E+12
(PID.TID 0000.0001) // =======================================================
(PID.TID 0000.0001) // End MONITOR dynamic field statistics
(PID.TID 0000.0001) // =======================================================
(PID.TID 0000.0001) // =======================================================
(PID.TID 0000.0001) // Begin OBCS MONITOR field statistics
(PID.TID 0000.0001) // =======================================================
(PID.TID 0000.0001) %MON obc_N_vVel_max               =   1.4739677979271E-05
(PID.TID 0000.0001) %MON obc_N_vVel_min               =   1.4739677979271E-05
(PID.TID 0000.0001) %MON obc_N_vVel_mean              =   1.4739677979271E-05
(PID.TID 0000.0001) %MON obc_N_vVel_sd                =   4.2110193993385E-12
(PID.TID 0000.0001) %MON obc_N_vVel_Int               =   9.7281874663187E+02
(PID.TID 0000.0001) // =======================================================
(PID.TID 0000.0001) // End OBCS MONITOR field statistics
(PID.TID 0000.0001) // =======================================================
 cg2d: Sum(rhs),rhsMax =   4.50734450032828E+00  2.99955833636162E+02
(PID.TID 0000.0001)      cg2d_init_res =   9.45724094708806E-06
(PID.TID 0000.0001)      cg2d_iters(min,last) =      -1      84
(PID.TID 0000.0001)      cg2d_last_res =   8.71199960662451E-12
(PID.TID 0000.0001) // =======================================================
(PID.TID 0000.0001) // Begin MONITOR dynamic field statistics
(PID.TID 0000.0001) // =======================================================
(PID.TID 0000.0001) %MON time_tsnumber                =                  1336
(PID.TID 0000.0001) %MON time_secondsf                =   1.3360000000000E+05
(PID.TID 0000.0001) %MON dynstat_eta_max              =   5.7985835560777E+00
(PID.TID 0000.0001) %MON dynstat_eta_min              =  -1.4189883680941E+01
(PID.TID 0000.0001) %MON dynstat_eta_mean             =  -2.5037116242247E+00
(PID.TID 0000.0001) %MON dynstat_eta_sd               =   4.9499219645964E+00
(PID.TID 0000.0001) %MON dynstat_eta_del2             =   2.0716223932984E-01
(PID.TID 0000.0001) %MON dynstat_uvel_max             =   1.0042971760832E-02
(PID.TID 0000.0001) %MON dynstat_uvel_min             =  -4.6275161704917E-02
(PID.TID 0000.0001) %MON dynstat_uvel_mean            =  -1.0967845247062E-07
(PID.TID 0000.0001) %MON dynstat_uvel_sd              =   1.3317615616291E-03
(PID.TID 0000.0001) %MON dynstat_uvel_del2            =   1.9861484001776E-06
(PID.TID 0000.0001) %MON dynstat_vvel_max             =   3.2065333899510E-02
(PID.TID 0000.0001) %MON dynstat_vvel_min             =  -1.5419314370183E-02
(PID.TID 0000.0001) %MON dynstat_vvel_mean            =   1.5015716609067E-05
(PID.TID 0000.0001) %MON dynstat_vvel_sd              =   7.2429282297321E-04
(PID.TID 0000.0001) %MON dynstat_vvel_del2            =   1.4936152248108E-06
(PID.TID 0000.0001) %MON dynstat_wvel_max             =   1.7255327043912E-03
(PID.TID 0000.0001) %MON dynstat_wvel_min             =  -1.6622775215772E-03
(PID.TID 0000.0001) %MON dynstat_wvel_mean            =   7.0377423730194E-09
(PID.TID 0000.0001) %MON dynstat_wvel_sd              =   2.7482305003079E-05
(PID.TID 0000.0001) %MON dynstat_wvel_del2            =   1.1220317854567E-07
(PID.TID 0000.0001) %MON dynstat_theta_max            =   1.2000000000000E+00
(PID.TID 0000.0001) %MON dynstat_theta_min            =  -1.0000000000000E+00
(PID.TID 0000.0001) %MON dynstat_theta_mean           =   5.6843040777732E-01
(PID.TID 0000.0001) %MON dynstat_theta_sd             =   8.6822091376719E-01
(PID.TID 0000.0001) %MON dynstat_theta_del2           =   4.7618870066800E-06
(PID.TID 0000.0001) %MON dynstat_salt_max             =   3.4700000000000E+01
(PID.TID 0000.0001) %MON dynstat_salt_min             =   3.4000000000000E+01
(PID.TID 0000.0001) %MON dynstat_salt_mean            =   3.4498986262231E+01
(PID.TID 0000.0001) %MON dynstat_salt_sd              =   2.7622829541634E-01
(PID.TID 0000.0001) %MON dynstat_salt_del2            =   1.8854796263914E-06
(PID.TID 0000.0001) %MON advcfl_uvel_max              =   4.6275161704917E-03
(PID.TID 0000.0001) %MON advcfl_vvel_max              =   3.2065333899510E-03
(PID.TID 0000.0001) %MON advcfl_wvel_max              =   8.6276635219562E-03
(PID.TID 0000.0001) %MON advcfl_W_hf_max              =   8.6276635219562E-03
(PID.TID 0000.0001) %MON pe_b_mean                    =  -8.2962322705831E-01
(PID.TID 0000.0001) %MON ke_max                       =   8.5978689523536E-04
(PID.TID 0000.0001) %MON ke_mean                      =   1.1316146354779E-06
(PID.TID 0000.0001) %MON ke_vol                       =   4.2724679815754E+12
(PID.TID 0000.0001) // =======================================================
(PID.TID 0000.0001) // End MONITOR dynamic field statistics
(PID.TID 0000.0001) // =======================================================
(PID.TID 0000.0001) // =======================================================
(PID.TID 0000.0001) // Begin OBCS MONITOR field statistics
(PID.TID 0000.0001) // =======================================================
(PID.TID 0000.0001) %MON obc_N_vVel_max               =   1.4740014147020E-05
(PID.TID 0000.0001) %MON obc_N_vVel_min               =   1.4740014147020E-05
(PID.TID 0000.0001) %MON obc_N_vVel_mean              =   1.4740014147020E-05
(PID.TID 0000.0001) %MON obc_N_vVel_sd                =  -2.8434333556510E-24
(PID.TID 0000.0001) %MON obc_N_vVel_Int               =   9.7284093370331E+02
(PID.TID 0000.0001) // =======================================================
(PID.TID 0000.0001) // End OBCS MONITOR field statistics
(PID.TID 0000.0001) // =======================================================
 cg2d: Sum(rhs),rhsMax =   4.50735202789033E+00  2.99955907929599E+02
(PID.TID 0000.0001)      cg2d_init_res =   9.47566770405704E-06
(PID.TID 0000.0001)      cg2d_iters(min,last) =      -1      84
(PID.TID 0000.0001)      cg2d_last_res =   8.73384814352984E-12
(PID.TID 0000.0001) // =======================================================
(PID.TID 0000.0001) // Begin MONITOR dynamic field statistics
(PID.TID 0000.0001) // =======================================================
(PID.TID 0000.0001) %MON time_tsnumber                =                  1337
(PID.TID 0000.0001) %MON time_secondsf                =   1.3370000000000E+05
(PID.TID 0000.0001) %MON dynstat_eta_max              =   5.7986044556142E+00
(PID.TID 0000.0001) %MON dynstat_eta_min              =  -1.4189913274273E+01
(PID.TID 0000.0001) %MON dynstat_eta_mean             =  -2.5037164257114E+00
(PID.TID 0000.0001) %MON dynstat_eta_sd               =   4.9499240525540E+00
(PID.TID 0000.0001) %MON dynstat_eta_del2             =   2.0716228633193E-01
(PID.TID 0000.0001) %MON dynstat_uvel_max             =   1.0067065468958E-02
(PID.TID 0000.0001) %MON dynstat_uvel_min             =  -4.6380134252953E-02
(PID.TID 0000.0001) %MON dynstat_uvel_mean            =  -1.0978385684570E-07
(PID.TID 0000.0001) %MON dynstat_uvel_sd              =   1.3347631723658E-03
(PID.TID 0000.0001) %MON dynstat_uvel_del2            =   1.9909648121349E-06
(PID.TID 0000.0001) %MON dynstat_vvel_max             =   3.2116092992806E-02
(PID.TID 0000.0001) %MON dynstat_vvel_min             =  -1.5457663167426E-02
(PID.TID 0000.0001) %MON dynstat_vvel_mean            =   1.5020820333766E-05
(PID.TID 0000.0001) %MON dynstat_vvel_sd              =   7.2568787167616E-04
(PID.TID 0000.0001) %MON dynstat_vvel_del2            =   1.4966126118719E-06
(PID.TID 0000.0001) %MON dynstat_wvel_max             =   1.7287011549363E-03
(PID.TID 0000.0001) %MON dynstat_wvel_min             =  -1.6654227937308E-03
(PID.TID 0000.0001) %MON dynstat_wvel_mean            =   7.0654077621387E-09
(PID.TID 0000.0001) %MON dynstat_wvel_sd              =   2.7520249750037E-05
(PID.TID 0000.0001) %MON dynstat_wvel_del2            =   1.1236176678445E-07
(PID.TID 0000.0001) %MON dynstat_theta_max            =   1.2000000000000E+00
(PID.TID 0000.0001) %MON dynstat_theta_min            =  -1.0000000000000E+00
(PID.TID 0000.0001) %MON dynstat_theta_mean           =   5.6842902861331E-01
(PID.TID 0000.0001) %MON dynstat_theta_sd             =   8.6822017769677E-01
(PID.TID 0000.0001) %MON dynstat_theta_del2           =   4.7711714707568E-06
(PID.TID 0000.0001) %MON dynstat_salt_max             =   3.4700000000000E+01
(PID.TID 0000.0001) %MON dynstat_salt_min             =   3.4000000000000E+01
(PID.TID 0000.0001) %MON dynstat_salt_mean            =   3.4498985709943E+01
(PID.TID 0000.0001) %MON dynstat_salt_sd              =   2.7622801301051E-01
(PID.TID 0000.0001) %MON dynstat_salt_del2            =   1.8891726075583E-06
(PID.TID 0000.0001) %MON advcfl_uvel_max              =   4.6380134252953E-03
(PID.TID 0000.0001) %MON advcfl_vvel_max              =   3.2116092992806E-03
(PID.TID 0000.0001) %MON advcfl_wvel_max              =   8.6435057746815E-03
(PID.TID 0000.0001) %MON advcfl_W_hf_max              =   8.6435057746815E-03
(PID.TID 0000.0001) %MON pe_b_mean                    =  -8.2962403681667E-01
(PID.TID 0000.0001) %MON ke_max                       =   8.6406743780621E-04
(PID.TID 0000.0001) %MON ke_mean                      =   1.1365486705660E-06
(PID.TID 0000.0001) %MON ke_vol                       =   4.2724679529521E+12
(PID.TID 0000.0001) // =======================================================
(PID.TID 0000.0001) // End MONITOR dynamic field statistics
(PID.TID 0000.0001) // =======================================================
(PID.TID 0000.0001) // =======================================================
(PID.TID 0000.0001) // Begin OBCS MONITOR field statistics
(PID.TID 0000.0001) // =======================================================
(PID.TID 0000.0001) %MON obc_N_vVel_max               =   1.4742794117336E-05
(PID.TID 0000.0001) %MON obc_N_vVel_min               =   1.4742794117335E-05
(PID.TID 0000.0001) %MON obc_N_vVel_mean              =   1.4742794117336E-05
(PID.TID 0000.0001) %MON obc_N_vVel_sd                =  -1.5199443755662E-23
(PID.TID 0000.0001) %MON obc_N_vVel_Int               =   9.7302441174415E+02
(PID.TID 0000.0001) // =======================================================
(PID.TID 0000.0001) // End OBCS MONITOR field statistics
(PID.TID 0000.0001) // =======================================================
 cg2d: Sum(rhs),rhsMax =   4.50735952415508E+00  2.99955982551052E+02
(PID.TID 0000.0001)      cg2d_init_res =   9.49487169073284E-06
(PID.TID 0000.0001)      cg2d_iters(min,last) =      -1      84
(PID.TID 0000.0001)      cg2d_last_res =   8.75539022084906E-12
(PID.TID 0000.0001) // =======================================================
(PID.TID 0000.0001) // Begin MONITOR dynamic field statistics
(PID.TID 0000.0001) // =======================================================
(PID.TID 0000.0001) %MON time_tsnumber                =                  1338
(PID.TID 0000.0001) %MON time_secondsf                =   1.3380000000000E+05
(PID.TID 0000.0001) %MON dynstat_eta_max              =   5.7986254266192E+00
(PID.TID 0000.0001) %MON dynstat_eta_min              =  -1.4189942882203E+01
(PID.TID 0000.0001) %MON dynstat_eta_mean             =  -2.5037212125533E+00
(PID.TID 0000.0001) %MON dynstat_eta_sd               =   4.9499261386516E+00
(PID.TID 0000.0001) %MON dynstat_eta_del2             =   2.0716233340858E-01
(PID.TID 0000.0001) %MON dynstat_uvel_max             =   1.0091202928946E-02
(PID.TID 0000.0001) %MON dynstat_uvel_min             =  -4.6485241331855E-02
(PID.TID 0000.0001) %MON dynstat_uvel_mean            =  -1.0988333008271E-07
(PID.TID 0000.0001) %MON dynstat_uvel_sd              =   1.3377707508623E-03
(PID.TID 0000.0001) %MON dynstat_uvel_del2            =   1.9957930604698E-06
(PID.TID 0000.0001) %MON dynstat_vvel_max             =   3.2166845237773E-02
(PID.TID 0000.0001) %MON dynstat_vvel_min             =  -1.5496094438944E-02
(PID.TID 0000.0001) %MON dynstat_vvel_mean            =   1.5028559001970E-05
(PID.TID 0000.0001) %MON dynstat_vvel_sd              =   7.2708720451938E-04
(PID.TID 0000.0001) %MON dynstat_vvel_del2            =   1.4996189550633E-06
(PID.TID 0000.0001) %MON dynstat_wvel_max             =   1.7318703990387E-03
(PID.TID 0000.0001) %MON dynstat_wvel_min             =  -1.6685696982382E-03
(PID.TID 0000.0001) %MON dynstat_wvel_mean            =   7.0953733631042E-09
(PID.TID 0000.0001) %MON dynstat_wvel_sd              =   2.7561189406323E-05
(PID.TID 0000.0001) %MON dynstat_wvel_del2            =   1.1253397862897E-07
(PID.TID 0000.0001) %MON dynstat_theta_max            =   1.2000000000000E+00
(PID.TID 0000.0001) %MON dynstat_theta_min            =  -1.0000000000000E+00
(PID.TID 0000.0001) %MON dynstat_theta_mean           =   5.6842764700983E-01
(PID.TID 0000.0001) %MON dynstat_theta_sd             =   8.6821944046763E-01
(PID.TID 0000.0001) %MON dynstat_theta_del2           =   4.7804640044656E-06
(PID.TID 0000.0001) %MON dynstat_salt_max             =   3.4700000000000E+01
(PID.TID 0000.0001) %MON dynstat_salt_min             =   3.4000000000000E+01
(PID.TID 0000.0001) %MON dynstat_salt_mean            =   3.4498985156678E+01
(PID.TID 0000.0001) %MON dynstat_salt_sd              =   2.7622773016907E-01
(PID.TID 0000.0001) %MON dynstat_salt_del2            =   1.8928694510224E-06
(PID.TID 0000.0001) %MON advcfl_uvel_max              =   4.6485241331855E-03
(PID.TID 0000.0001) %MON advcfl_vvel_max              =   3.2166845237773E-03
(PID.TID 0000.0001) %MON advcfl_wvel_max              =   8.6593519951933E-03
(PID.TID 0000.0001) %MON advcfl_W_hf_max              =   8.6593519951933E-03
(PID.TID 0000.0001) %MON pe_b_mean                    =  -8.2962484158190E-01
(PID.TID 0000.0001) %MON ke_max                       =   8.6836519923501E-04
(PID.TID 0000.0001) %MON ke_mean                      =   1.1415044621400E-06
(PID.TID 0000.0001) %MON ke_vol                       =   4.2724679244313E+12
(PID.TID 0000.0001) // =======================================================
(PID.TID 0000.0001) // End MONITOR dynamic field statistics
(PID.TID 0000.0001) // =======================================================
(PID.TID 0000.0001) // =======================================================
(PID.TID 0000.0001) // Begin OBCS MONITOR field statistics
(PID.TID 0000.0001) // =======================================================
(PID.TID 0000.0001) %MON obc_N_vVel_max               =   1.4747949616978E-05
(PID.TID 0000.0001) %MON obc_N_vVel_min               =   1.4747949616978E-05
(PID.TID 0000.0001) %MON obc_N_vVel_mean              =   1.4747949616978E-05
(PID.TID 0000.0001) %MON obc_N_vVel_sd                =  -4.6011921573262E-24
(PID.TID 0000.0001) %MON obc_N_vVel_Int               =   9.7336467472055E+02
(PID.TID 0000.0001) // =======================================================
(PID.TID 0000.0001) // End OBCS MONITOR field statistics
(PID.TID 0000.0001) // =======================================================
 cg2d: Sum(rhs),rhsMax =   4.50736699339947E+00  2.99956057512643E+02
(PID.TID 0000.0001)      cg2d_init_res =   9.51470694392852E-06
(PID.TID 0000.0001)      cg2d_iters(min,last) =      -1      84
(PID.TID 0000.0001)      cg2d_last_res =   8.77643940432740E-12
(PID.TID 0000.0001) // =======================================================
(PID.TID 0000.0001) // Begin MONITOR dynamic field statistics
(PID.TID 0000.0001) // =======================================================
(PID.TID 0000.0001) %MON time_tsnumber                =                  1339
(PID.TID 0000.0001) %MON time_secondsf                =   1.3390000000000E+05
(PID.TID 0000.0001) %MON dynstat_eta_max              =   5.7986464646065E+00
(PID.TID 0000.0001) %MON dynstat_eta_min              =  -1.4189972506838E+01
(PID.TID 0000.0001) %MON dynstat_eta_mean             =  -2.5037259872273E+00
(PID.TID 0000.0001) %MON dynstat_eta_sd               =   4.9499282235661E+00
(PID.TID 0000.0001) %MON dynstat_eta_del2             =   2.0716238056023E-01
(PID.TID 0000.0001) %MON dynstat_uvel_max             =   1.0115384197828E-02
(PID.TID 0000.0001) %MON dynstat_uvel_min             =  -4.6590482736778E-02
(PID.TID 0000.0001) %MON dynstat_uvel_mean            =  -1.0997438924595E-07
(PID.TID 0000.0001) %MON dynstat_uvel_sd              =   1.3407843068315E-03
(PID.TID 0000.0001) %MON dynstat_uvel_del2            =   2.0006331756148E-06
(PID.TID 0000.0001) %MON dynstat_vvel_max             =   3.2217590338832E-02
(PID.TID 0000.0001) %MON dynstat_vvel_min             =  -1.5534608346741E-02
(PID.TID 0000.0001) %MON dynstat_vvel_mean            =   1.5038771542737E-05
(PID.TID 0000.0001) %MON dynstat_vvel_sd              =   7.2849089718350E-04
(PID.TID 0000.0001) %MON dynstat_vvel_del2            =   1.5026340190715E-06
(PID.TID 0000.0001) %MON dynstat_wvel_max             =   1.7350404182623E-03
(PID.TID 0000.0001) %MON dynstat_wvel_min             =  -1.6717182164709E-03
(PID.TID 0000.0001) %MON dynstat_wvel_mean            =   7.1270790593799E-09
(PID.TID 0000.0001) %MON dynstat_wvel_sd              =   2.7605235262338E-05
(PID.TID 0000.0001) %MON dynstat_wvel_del2            =   1.1271963187602E-07
(PID.TID 0000.0001) %MON dynstat_theta_max            =   1.2000000000000E+00
(PID.TID 0000.0001) %MON dynstat_theta_min            =  -1.0000000000000E+00
(PID.TID 0000.0001) %MON dynstat_theta_mean           =   5.6842626295894E-01
(PID.TID 0000.0001) %MON dynstat_theta_sd             =   8.6821870207410E-01
(PID.TID 0000.0001) %MON dynstat_theta_del2           =   4.7897644409861E-06
(PID.TID 0000.0001) %MON dynstat_salt_max             =   3.4700000000000E+01
(PID.TID 0000.0001) %MON dynstat_salt_min             =   3.4000000000000E+01
(PID.TID 0000.0001) %MON dynstat_salt_mean            =   3.4498984602434E+01
(PID.TID 0000.0001) %MON dynstat_salt_sd              =   2.7622744689019E-01
(PID.TID 0000.0001) %MON dynstat_salt_del2            =   1.8965701176992E-06
(PID.TID 0000.0001) %MON advcfl_uvel_max              =   4.6590482736778E-03
(PID.TID 0000.0001) %MON advcfl_vvel_max              =   3.2217590338832E-03
(PID.TID 0000.0001) %MON advcfl_wvel_max              =   8.6752020913117E-03
(PID.TID 0000.0001) %MON advcfl_W_hf_max              =   8.6752020913117E-03
(PID.TID 0000.0001) %MON pe_b_mean                    =  -8.2962564195547E-01
(PID.TID 0000.0001) %MON ke_max                       =   8.7268021566556E-04
(PID.TID 0000.0001) %MON ke_mean                      =   1.1464821465057E-06
(PID.TID 0000.0001) %MON ke_vol                       =   4.2724678959974E+12
(PID.TID 0000.0001) // =======================================================
(PID.TID 0000.0001) // End MONITOR dynamic field statistics
(PID.TID 0000.0001) // =======================================================
(PID.TID 0000.0001) // =======================================================
(PID.TID 0000.0001) // Begin OBCS MONITOR field statistics
(PID.TID 0000.0001) // =======================================================
(PID.TID 0000.0001) %MON obc_N_vVel_max               =   1.4755368311468E-05
(PID.TID 0000.0001) %MON obc_N_vVel_min               =   1.4755368311467E-05
(PID.TID 0000.0001) %MON obc_N_vVel_mean              =   1.4755368311467E-05
(PID.TID 0000.0001) %MON obc_N_vVel_sd                =   4.8924982346193E-12
(PID.TID 0000.0001) %MON obc_N_vVel_Int               =   9.7385430855684E+02
(PID.TID 0000.0001) // =======================================================
(PID.TID 0000.0001) // End OBCS MONITOR field statistics
(PID.TID 0000.0001) // =======================================================
 cg2d: Sum(rhs),rhsMax =   4.50737443967614E+00  2.99956132820898E+02
(PID.TID 0000.0001)      cg2d_init_res =   9.53499907624597E-06
(PID.TID 0000.0001)      cg2d_iters(min,last) =      -1      84
(PID.TID 0000.0001)      cg2d_last_res =   8.79680560605689E-12
(PID.TID 0000.0001) // =======================================================
(PID.TID 0000.0001) // Begin MONITOR dynamic field statistics
(PID.TID 0000.0001) // =======================================================
(PID.TID 0000.0001) %MON time_tsnumber                =                  1340
(PID.TID 0000.0001) %MON time_secondsf                =   1.3400000000000E+05
(PID.TID 0000.0001) %MON dynstat_eta_max              =   5.7986675655130E+00
(PID.TID 0000.0001) %MON dynstat_eta_min              =  -1.4190002149973E+01
(PID.TID 0000.0001) %MON dynstat_eta_mean             =  -2.5037307520389E+00
(PID.TID 0000.0001) %MON dynstat_eta_sd               =   4.9499303078825E+00
(PID.TID 0000.0001) %MON dynstat_eta_del2             =   2.0716242778720E-01
(PID.TID 0000.0001) %MON dynstat_uvel_max             =   1.0139609335004E-02
(PID.TID 0000.0001) %MON dynstat_uvel_min             =  -4.6695858254124E-02
(PID.TID 0000.0001) %MON dynstat_uvel_mean            =  -1.1005473027172E-07
(PID.TID 0000.0001) %MON dynstat_uvel_sd              =   1.3438038501333E-03
(PID.TID 0000.0001) %MON dynstat_uvel_del2            =   2.0054851883807E-06
(PID.TID 0000.0001) %MON dynstat_vvel_max             =   3.2268327991043E-02
(PID.TID 0000.0001) %MON dynstat_vvel_min             =  -1.5573205061646E-02
(PID.TID 0000.0001) %MON dynstat_vvel_mean            =   1.5051251637406E-05
(PID.TID 0000.0001) %MON dynstat_vvel_sd              =   7.2989899135521E-04
(PID.TID 0000.0001) %MON dynstat_vvel_del2            =   1.5056573256164E-06
(PID.TID 0000.0001) %MON dynstat_wvel_max             =   1.7382111940360E-03
(PID.TID 0000.0001) %MON dynstat_wvel_min             =  -1.6748683293332E-03
(PID.TID 0000.0001) %MON dynstat_wvel_mean            =   7.1599358299715E-09
(PID.TID 0000.0001) %MON dynstat_wvel_sd              =   2.7652331564067E-05
(PID.TID 0000.0001) %MON dynstat_wvel_del2            =   1.1291752576173E-07
(PID.TID 0000.0001) %MON dynstat_theta_max            =   1.2000000000000E+00
(PID.TID 0000.0001) %MON dynstat_theta_min            =  -1.0000000000000E+00
(PID.TID 0000.0001) %MON dynstat_theta_mean           =   5.6842487645258E-01
(PID.TID 0000.0001) %MON dynstat_theta_sd             =   8.6821796251245E-01
(PID.TID 0000.0001) %MON dynstat_theta_del2           =   4.7990730121804E-06
(PID.TID 0000.0001) %MON dynstat_salt_max             =   3.4700000000000E+01
(PID.TID 0000.0001) %MON dynstat_salt_min             =   3.4000000000000E+01
(PID.TID 0000.0001) %MON dynstat_salt_mean            =   3.4498984047207E+01
(PID.TID 0000.0001) %MON dynstat_salt_sd              =   2.7622716317279E-01
(PID.TID 0000.0001) %MON dynstat_salt_del2            =   1.9002746423242E-06
(PID.TID 0000.0001) %MON advcfl_uvel_max              =   4.6695858254124E-03
(PID.TID 0000.0001) %MON advcfl_vvel_max              =   3.2268327991043E-03
(PID.TID 0000.0001) %MON advcfl_wvel_max              =   8.6910559701799E-03
(PID.TID 0000.0001) %MON advcfl_W_hf_max              =   8.6910559701799E-03
(PID.TID 0000.0001) %MON pe_b_mean                    =  -8.2962643848342E-01
(PID.TID 0000.0001) %MON ke_max                       =   8.7701252298924E-04
(PID.TID 0000.0001) %MON ke_mean                      =   1.1514818353899E-06
(PID.TID 0000.0001) %MON ke_vol                       =   4.2724678676359E+12
(PID.TID 0000.0001) // =======================================================
(PID.TID 0000.0001) // End MONITOR dynamic field statistics
(PID.TID 0000.0001) // =======================================================
(PID.TID 0000.0001) // =======================================================
(PID.TID 0000.0001) // Begin OBCS MONITOR field statistics
(PID.TID 0000.0001) // =======================================================
(PID.TID 0000.0001) %MON obc_N_vVel_max               =   1.4764896248761E-05
(PID.TID 0000.0001) %MON obc_N_vVel_min               =   1.4764896248760E-05
(PID.TID 0000.0001) %MON obc_N_vVel_mean              =   1.4764896248761E-05
(PID.TID 0000.0001) %MON obc_N_vVel_sd                =  -1.5923226791646E-23
(PID.TID 0000.0001) %MON obc_N_vVel_Int               =   9.7448315241820E+02
(PID.TID 0000.0001) // =======================================================
(PID.TID 0000.0001) // End OBCS MONITOR field statistics
(PID.TID 0000.0001) // =======================================================
 cg2d: Sum(rhs),rhsMax =   4.50738186673895E+00  2.99956208476633E+02
(PID.TID 0000.0001)      cg2d_init_res =   9.55556589435092E-06
(PID.TID 0000.0001)      cg2d_iters(min,last) =      -1      84
(PID.TID 0000.0001)      cg2d_last_res =   8.81632156611507E-12
(PID.TID 0000.0001) // =======================================================
(PID.TID 0000.0001) // Begin MONITOR dynamic field statistics
(PID.TID 0000.0001) // =======================================================
(PID.TID 0000.0001) %MON time_tsnumber                =                  1341
(PID.TID 0000.0001) %MON time_secondsf                =   1.3410000000000E+05
(PID.TID 0000.0001) %MON dynstat_eta_max              =   5.7986887257713E+00
(PID.TID 0000.0001) %MON dynstat_eta_min              =  -1.4190031813100E+01
(PID.TID 0000.0001) %MON dynstat_eta_mean             =  -2.5037355090803E+00
(PID.TID 0000.0001) %MON dynstat_eta_sd               =   4.9499323920835E+00
(PID.TID 0000.0001) %MON dynstat_eta_del2             =   2.0716247508972E-01
(PID.TID 0000.0001) %MON dynstat_uvel_max             =   1.0163878401974E-02
(PID.TID 0000.0001) %MON dynstat_uvel_min             =  -4.6801367662096E-02
(PID.TID 0000.0001) %MON dynstat_uvel_mean            =  -1.1012227998466E-07
(PID.TID 0000.0001) %MON dynstat_uvel_sd              =   1.3468293907669E-03
(PID.TID 0000.0001) %MON dynstat_uvel_del2            =   2.0103491298224E-06
(PID.TID 0000.0001) %MON dynstat_vvel_max             =   3.2319057881145E-02
(PID.TID 0000.0001) %MON dynstat_vvel_min             =  -1.5611884762128E-02
(PID.TID 0000.0001) %MON dynstat_vvel_mean            =   1.5065751928562E-05
(PID.TID 0000.0001) %MON dynstat_vvel_sd              =   7.3131149586117E-04
(PID.TID 0000.0001) %MON dynstat_vvel_del2            =   1.5086881942366E-06
(PID.TID 0000.0001) %MON dynstat_wvel_max             =   1.7413827076733E-03
(PID.TID 0000.0001) %MON dynstat_wvel_min             =  -1.6780200173449E-03
(PID.TID 0000.0001) %MON dynstat_wvel_mean            =   7.1933378036691E-09
(PID.TID 0000.0001) %MON dynstat_wvel_sd              =   2.7702271960823E-05
(PID.TID 0000.0001) %MON dynstat_wvel_del2            =   1.1312557263844E-07
(PID.TID 0000.0001) %MON dynstat_theta_max            =   1.2000000000000E+00
(PID.TID 0000.0001) %MON dynstat_theta_min            =  -1.0000000000000E+00
(PID.TID 0000.0001) %MON dynstat_theta_mean           =   5.6842348748253E-01
(PID.TID 0000.0001) %MON dynstat_theta_sd             =   8.6821722178129E-01
(PID.TID 0000.0001) %MON dynstat_theta_del2           =   4.8083905154721E-06
(PID.TID 0000.0001) %MON dynstat_salt_max             =   3.4700000000000E+01
(PID.TID 0000.0001) %MON dynstat_salt_min             =   3.4000000000000E+01
(PID.TID 0000.0001) %MON dynstat_salt_mean            =   3.4498983490995E+01
(PID.TID 0000.0001) %MON dynstat_salt_sd              =   2.7622687901627E-01
(PID.TID 0000.0001) %MON dynstat_salt_del2            =   1.9039831195486E-06
(PID.TID 0000.0001) %MON advcfl_uvel_max              =   4.6801367662096E-03
(PID.TID 0000.0001) %MON advcfl_vvel_max              =   3.2319057881145E-03
(PID.TID 0000.0001) %MON advcfl_wvel_max              =   8.7069135383665E-03
(PID.TID 0000.0001) %MON advcfl_W_hf_max              =   8.7069135383665E-03
(PID.TID 0000.0001) %MON pe_b_mean                    =  -8.2962723164639E-01
(PID.TID 0000.0001) %MON ke_max                       =   8.8136215686598E-04
(PID.TID 0000.0001) %MON ke_mean                      =   1.1565036165816E-06
(PID.TID 0000.0001) %MON ke_vol                       =   4.2724678393329E+12
(PID.TID 0000.0001) // =======================================================
(PID.TID 0000.0001) // End MONITOR dynamic field statistics
(PID.TID 0000.0001) // =======================================================
(PID.TID 0000.0001) // =======================================================
(PID.TID 0000.0001) // Begin OBCS MONITOR field statistics
(PID.TID 0000.0001) // =======================================================
(PID.TID 0000.0001) %MON obc_N_vVel_max               =   1.4776341026373E-05
(PID.TID 0000.0001) %MON obc_N_vVel_min               =   1.4776341026373E-05
(PID.TID 0000.0001) %MON obc_N_vVel_mean              =   1.4776341026373E-05
(PID.TID 0000.0001) %MON obc_N_vVel_sd                =  -1.2433558582438E-23
(PID.TID 0000.0001) %MON obc_N_vVel_Int               =   9.7523850774061E+02
(PID.TID 0000.0001) // =======================================================
(PID.TID 0000.0001) // End OBCS MONITOR field statistics
(PID.TID 0000.0001) // =======================================================
 cg2d: Sum(rhs),rhsMax =   4.50738927797561E+00  2.99956284474740E+02
(PID.TID 0000.0001)      cg2d_init_res =   9.57621678418735E-06
(PID.TID 0000.0001)      cg2d_iters(min,last) =      -1      84
(PID.TID 0000.0001)      cg2d_last_res =   8.83484904347646E-12
(PID.TID 0000.0001) // =======================================================
(PID.TID 0000.0001) // Begin MONITOR dynamic field statistics
(PID.TID 0000.0001) // =======================================================
(PID.TID 0000.0001) %MON time_tsnumber                =                  1342
(PID.TID 0000.0001) %MON time_secondsf                =   1.3420000000000E+05
(PID.TID 0000.0001) %MON dynstat_eta_max              =   5.7987099423842E+00
(PID.TID 0000.0001) %MON dynstat_eta_min              =  -1.4190061497338E+01
(PID.TID 0000.0001) %MON dynstat_eta_mean             =  -2.5037402601904E+00
(PID.TID 0000.0001) %MON dynstat_eta_sd               =   4.9499344765415E+00
(PID.TID 0000.0001) %MON dynstat_eta_del2             =   2.0716252246794E-01
(PID.TID 0000.0001) %MON dynstat_uvel_max             =   1.0188191462047E-02
(PID.TID 0000.0001) %MON dynstat_uvel_min             =  -4.6907010731359E-02
(PID.TID 0000.0001) %MON dynstat_uvel_mean            =  -1.1017523771357E-07
(PID.TID 0000.0001) %MON dynstat_uvel_sd              =   1.3498609388655E-03
(PID.TID 0000.0001) %MON dynstat_uvel_del2            =   2.0152250312703E-06
(PID.TID 0000.0001) %MON dynstat_vvel_max             =   3.2369779688509E-02
(PID.TID 0000.0001) %MON dynstat_vvel_min             =  -1.5650647633313E-02
(PID.TID 0000.0001) %MON dynstat_vvel_mean            =   1.5081988989574E-05
(PID.TID 0000.0001) %MON dynstat_vvel_sd              =   7.3272838941249E-04
(PID.TID 0000.0001) %MON dynstat_vvel_del2            =   1.5117257977856E-06
(PID.TID 0000.0001) %MON dynstat_wvel_max             =   1.7445549404893E-03
(PID.TID 0000.0001) %MON dynstat_wvel_min             =  -1.6811732604929E-03
(PID.TID 0000.0001) %MON dynstat_wvel_mean            =   7.2266729796951E-09
(PID.TID 0000.0001) %MON dynstat_wvel_sd              =   2.7754726727624E-05
(PID.TID 0000.0001) %MON dynstat_wvel_del2            =   1.1334099738222E-07
(PID.TID 0000.0001) %MON dynstat_theta_max            =   1.2000000000000E+00
(PID.TID 0000.0001) %MON dynstat_theta_min            =  -1.0000000000000E+00
(PID.TID 0000.0001) %MON dynstat_theta_mean           =   5.6842209604036E-01
(PID.TID 0000.0001) %MON dynstat_theta_sd             =   8.6821647987982E-01
(PID.TID 0000.0001) %MON dynstat_theta_del2           =   4.8177171709145E-06
(PID.TID 0000.0001) %MON dynstat_salt_max             =   3.4700000000000E+01
(PID.TID 0000.0001) %MON dynstat_salt_min             =   3.4000000000000E+01
(PID.TID 0000.0001) %MON dynstat_salt_mean            =   3.4498982933795E+01
(PID.TID 0000.0001) %MON dynstat_salt_sd              =   2.7622659442055E-01
(PID.TID 0000.0001) %MON dynstat_salt_del2            =   1.9076957280465E-06
(PID.TID 0000.0001) %MON advcfl_uvel_max              =   4.6907010731359E-03
(PID.TID 0000.0001) %MON advcfl_vvel_max              =   3.2369779688509E-03
(PID.TID 0000.0001) %MON advcfl_wvel_max              =   8.7227747024466E-03
(PID.TID 0000.0001) %MON advcfl_W_hf_max              =   8.7227747024466E-03
(PID.TID 0000.0001) %MON pe_b_mean                    =  -8.2962802185067E-01
(PID.TID 0000.0001) %MON ke_max                       =   8.8572915274666E-04
(PID.TID 0000.0001) %MON ke_mean                      =   1.1615475557735E-06
(PID.TID 0000.0001) %MON ke_vol                       =   4.2724678110761E+12
(PID.TID 0000.0001) // =======================================================
(PID.TID 0000.0001) // End MONITOR dynamic field statistics
(PID.TID 0000.0001) // =======================================================
(PID.TID 0000.0001) // =======================================================
(PID.TID 0000.0001) // Begin OBCS MONITOR field statistics
(PID.TID 0000.0001) // =======================================================
(PID.TID 0000.0001) %MON obc_N_vVel_max               =   1.4789475765244E-05
(PID.TID 0000.0001) %MON obc_N_vVel_min               =   1.4789475765244E-05
(PID.TID 0000.0001) %MON obc_N_vVel_mean              =   1.4789475765244E-05
(PID.TID 0000.0001) %MON obc_N_vVel_sd                =   2.5319260943570E-12
(PID.TID 0000.0001) %MON obc_N_vVel_Int               =   9.7610540050609E+02
(PID.TID 0000.0001) // =======================================================
(PID.TID 0000.0001) // End OBCS MONITOR field statistics
(PID.TID 0000.0001) // =======================================================
 cg2d: Sum(rhs),rhsMax =   4.50739667634589E+00  2.99956360804534E+02
(PID.TID 0000.0001)      cg2d_init_res =   9.59676560187618E-06
(PID.TID 0000.0001)      cg2d_iters(min,last) =      -1      84
(PID.TID 0000.0001)      cg2d_last_res =   8.85225269410722E-12
(PID.TID 0000.0001) // =======================================================
(PID.TID 0000.0001) // Begin MONITOR dynamic field statistics
(PID.TID 0000.0001) // =======================================================
(PID.TID 0000.0001) %MON time_tsnumber                =                  1343
(PID.TID 0000.0001) %MON time_secondsf                =   1.3430000000000E+05
(PID.TID 0000.0001) %MON dynstat_eta_max              =   5.7987312129699E+00
(PID.TID 0000.0001) %MON dynstat_eta_min              =  -1.4190091203441E+01
(PID.TID 0000.0001) %MON dynstat_eta_mean             =  -2.5037450069244E+00
(PID.TID 0000.0001) %MON dynstat_eta_sd               =   4.9499365615121E+00
(PID.TID 0000.0001) %MON dynstat_eta_del2             =   2.0716256992196E-01
(PID.TID 0000.0001) %MON dynstat_uvel_max             =   1.0212548579636E-02
(PID.TID 0000.0001) %MON dynstat_uvel_min             =  -4.7012787225416E-02
(PID.TID 0000.0001) %MON dynstat_uvel_mean            =  -1.1021211822747E-07
(PID.TID 0000.0001) %MON dynstat_uvel_sd              =   1.3528985046701E-03
(PID.TID 0000.0001) %MON dynstat_uvel_del2            =   2.0201129238300E-06
(PID.TID 0000.0001) %MON dynstat_vvel_max             =   3.2420493086361E-02
(PID.TID 0000.0001) %MON dynstat_vvel_min             =  -1.5689493865718E-02
(PID.TID 0000.0001) %MON dynstat_vvel_mean            =   1.5099648925351E-05
(PID.TID 0000.0001) %MON dynstat_vvel_sd              =   7.3414962459663E-04
(PID.TID 0000.0001) %MON dynstat_vvel_del2            =   1.5147692282691E-06
(PID.TID 0000.0001) %MON dynstat_wvel_max             =   1.7477278738168E-03
(PID.TID 0000.0001) %MON dynstat_wvel_min             =  -1.6843280382707E-03
(PID.TID 0000.0001) %MON dynstat_wvel_mean            =   7.2593351011465E-09
(PID.TID 0000.0001) %MON dynstat_wvel_sd              =   2.7809278158834E-05
(PID.TID 0000.0001) %MON dynstat_wvel_del2            =   1.1356058568936E-07
(PID.TID 0000.0001) %MON dynstat_theta_max            =   1.2000000000000E+00
(PID.TID 0000.0001) %MON dynstat_theta_min            =  -1.0000000000000E+00
(PID.TID 0000.0001) %MON dynstat_theta_mean           =   5.6842070211762E-01
(PID.TID 0000.0001) %MON dynstat_theta_sd             =   8.6821573680859E-01
(PID.TID 0000.0001) %MON dynstat_theta_del2           =   4.8270536669570E-06
(PID.TID 0000.0001) %MON dynstat_salt_max             =   3.4700000000000E+01
(PID.TID 0000.0001) %MON dynstat_salt_min             =   3.4000000000000E+01
(PID.TID 0000.0001) %MON dynstat_salt_mean            =   3.4498982375603E+01
(PID.TID 0000.0001) %MON dynstat_salt_sd              =   2.7622630938575E-01
(PID.TID 0000.0001) %MON dynstat_salt_del2            =   1.9114126761858E-06
(PID.TID 0000.0001) %MON advcfl_uvel_max              =   4.7012787225416E-03
(PID.TID 0000.0001) %MON advcfl_vvel_max              =   3.2420493086361E-03
(PID.TID 0000.0001) %MON advcfl_wvel_max              =   8.7386393690839E-03
(PID.TID 0000.0001) %MON advcfl_W_hf_max              =   8.7386393690839E-03
(PID.TID 0000.0001) %MON pe_b_mean                    =  -8.2962880942124E-01
(PID.TID 0000.0001) %MON ke_max                       =   8.9011354589652E-04
(PID.TID 0000.0001) %MON ke_mean                      =   1.1666136993238E-06
(PID.TID 0000.0001) %MON ke_vol                       =   4.2724677828545E+12
(PID.TID 0000.0001) // =======================================================
(PID.TID 0000.0001) // End MONITOR dynamic field statistics
(PID.TID 0000.0001) // =======================================================
(PID.TID 0000.0001) // =======================================================
(PID.TID 0000.0001) // Begin OBCS MONITOR field statistics
(PID.TID 0000.0001) // =======================================================
(PID.TID 0000.0001) %MON obc_N_vVel_max               =   1.4804043592135E-05
(PID.TID 0000.0001) %MON obc_N_vVel_min               =   1.4804043592135E-05
(PID.TID 0000.0001) %MON obc_N_vVel_mean              =   1.4804043592135E-05
(PID.TID 0000.0001) %MON obc_N_vVel_sd                =  -1.1011841904612E-23
(PID.TID 0000.0001) %MON obc_N_vVel_Int               =   9.7706687708094E+02
(PID.TID 0000.0001) // =======================================================
(PID.TID 0000.0001) // End OBCS MONITOR field statistics
(PID.TID 0000.0001) // =======================================================
 cg2d: Sum(rhs),rhsMax =   4.50740406432936E+00  2.99956437449815E+02
(PID.TID 0000.0001)      cg2d_init_res =   9.61701259901310E-06
(PID.TID 0000.0001)      cg2d_iters(min,last) =      -1      84
(PID.TID 0000.0001)      cg2d_last_res =   8.86842898748070E-12
(PID.TID 0000.0001) // =======================================================
(PID.TID 0000.0001) // Begin MONITOR dynamic field statistics
(PID.TID 0000.0001) // =======================================================
(PID.TID 0000.0001) %MON time_tsnumber                =                  1344
(PID.TID 0000.0001) %MON time_secondsf                =   1.3440000000000E+05
(PID.TID 0000.0001) %MON dynstat_eta_max              =   5.7987525358150E+00
(PID.TID 0000.0001) %MON dynstat_eta_min              =  -1.4190120931763E+01
(PID.TID 0000.0001) %MON dynstat_eta_mean             =  -2.5037497505242E+00
(PID.TID 0000.0001) %MON dynstat_eta_sd               =   4.9499386471282E+00
(PID.TID 0000.0001) %MON dynstat_eta_del2             =   2.0716261745170E-01
(PID.TID 0000.0001) %MON dynstat_uvel_max             =   1.0236949820003E-02
(PID.TID 0000.0001) %MON dynstat_uvel_min             =  -4.7118696901311E-02
(PID.TID 0000.0001) %MON dynstat_uvel_mean            =  -1.1023177005437E-07
(PID.TID 0000.0001) %MON dynstat_uvel_sd              =   1.3559420985177E-03
(PID.TID 0000.0001) %MON dynstat_uvel_del2            =   2.0250128383747E-06
(PID.TID 0000.0001) %MON dynstat_vvel_max             =   3.2471197742916E-02
(PID.TID 0000.0001) %MON dynstat_vvel_min             =  -1.5728423653970E-02
(PID.TID 0000.0001) %MON dynstat_vvel_mean            =   1.5118393532702E-05
(PID.TID 0000.0001) %MON dynstat_vvel_sd              =   7.3557513281664E-04
(PID.TID 0000.0001) %MON dynstat_vvel_del2            =   1.5178175670275E-06
(PID.TID 0000.0001) %MON dynstat_wvel_max             =   1.7509014889386E-03
(PID.TID 0000.0001) %MON dynstat_wvel_min             =  -1.6874843300095E-03
(PID.TID 0000.0001) %MON dynstat_wvel_mean            =   7.2907354656141E-09
(PID.TID 0000.0001) %MON dynstat_wvel_sd              =   2.7865461031626E-05
(PID.TID 0000.0001) %MON dynstat_wvel_del2            =   1.1378096066711E-07
(PID.TID 0000.0001) %MON dynstat_theta_max            =   1.2000000000000E+00
(PID.TID 0000.0001) %MON dynstat_theta_min            =  -1.0000000000000E+00
(PID.TID 0000.0001) %MON dynstat_theta_mean           =   5.6841930570575E-01
(PID.TID 0000.0001) %MON dynstat_theta_sd             =   8.6821499256723E-01
(PID.TID 0000.0001) %MON dynstat_theta_del2           =   4.8364008529741E-06
(PID.TID 0000.0001) %MON dynstat_salt_max             =   3.4700000000000E+01
(PID.TID 0000.0001) %MON dynstat_salt_min             =   3.4000000000000E+01
(PID.TID 0000.0001) %MON dynstat_salt_mean            =   3.4498981816417E+01
(PID.TID 0000.0001) %MON dynstat_salt_sd              =   2.7622602391182E-01
(PID.TID 0000.0001) %MON dynstat_salt_del2            =   1.9151343434118E-06
(PID.TID 0000.0001) %MON advcfl_uvel_max              =   4.7118696901311E-03
(PID.TID 0000.0001) %MON advcfl_vvel_max              =   3.2471197742916E-03
(PID.TID 0000.0001) %MON advcfl_wvel_max              =   8.7545074446930E-03
(PID.TID 0000.0001) %MON advcfl_W_hf_max              =   8.7545074446930E-03
(PID.TID 0000.0001) %MON pe_b_mean                    =  -8.2962959459591E-01
(PID.TID 0000.0001) %MON ke_max                       =   8.9451537142026E-04
(PID.TID 0000.0001) %MON ke_mean                      =   1.1717020777724E-06
(PID.TID 0000.0001) %MON ke_vol                       =   4.2724677546589E+12
(PID.TID 0000.0001) // =======================================================
(PID.TID 0000.0001) // End MONITOR dynamic field statistics
(PID.TID 0000.0001) // =======================================================
(PID.TID 0000.0001) // =======================================================
(PID.TID 0000.0001) // Begin OBCS MONITOR field statistics
(PID.TID 0000.0001) // =======================================================
(PID.TID 0000.0001) %MON obc_N_vVel_max               =   1.4819762719694E-05
(PID.TID 0000.0001) %MON obc_N_vVel_min               =   1.4819762719694E-05
(PID.TID 0000.0001) %MON obc_N_vVel_mean              =   1.4819762719694E-05
(PID.TID 0000.0001) %MON obc_N_vVel_sd                =   2.3354276190928E-12
(PID.TID 0000.0001) %MON obc_N_vVel_Int               =   9.7810433949978E+02
(PID.TID 0000.0001) // =======================================================
(PID.TID 0000.0001) // End OBCS MONITOR field statistics
(PID.TID 0000.0001) // =======================================================
 cg2d: Sum(rhs),rhsMax =   4.50741144388029E+00  2.99956514389261E+02
(PID.TID 0000.0001)      cg2d_init_res =   9.63678528767211E-06
(PID.TID 0000.0001)      cg2d_iters(min,last) =      -1      84
(PID.TID 0000.0001)      cg2d_last_res =   8.88329920935671E-12
(PID.TID 0000.0001) // =======================================================
(PID.TID 0000.0001) // Begin MONITOR dynamic field statistics
(PID.TID 0000.0001) // =======================================================
(PID.TID 0000.0001) %MON time_tsnumber                =                  1345
(PID.TID 0000.0001) %MON time_secondsf                =   1.3450000000000E+05
(PID.TID 0000.0001) %MON dynstat_eta_max              =   5.7987739098938E+00
(PID.TID 0000.0001) %MON dynstat_eta_min              =  -1.4190150682253E+01
(PID.TID 0000.0001) %MON dynstat_eta_mean             =  -2.5037544918974E+00
(PID.TID 0000.0001) %MON dynstat_eta_sd               =   4.9499407334049E+00
(PID.TID 0000.0001) %MON dynstat_eta_del2             =   2.0716266505729E-01
(PID.TID 0000.0001) %MON dynstat_uvel_max             =   1.0261395248829E-02
(PID.TID 0000.0001) %MON dynstat_uvel_min             =  -4.7224739510376E-02
(PID.TID 0000.0001) %MON dynstat_uvel_mean            =  -1.1023340029298E-07
(PID.TID 0000.0001) %MON dynstat_uvel_sd              =   1.3589917307996E-03
(PID.TID 0000.0001) %MON dynstat_uvel_del2            =   2.0299248053899E-06
(PID.TID 0000.0001) %MON dynstat_vvel_max             =   3.2521893322982E-02
(PID.TID 0000.0001) %MON dynstat_vvel_min             =  -1.5767437195493E-02
(PID.TID 0000.0001) %MON dynstat_vvel_mean            =   1.5137866877476E-05
(PID.TID 0000.0001) %MON dynstat_vvel_sd              =   7.3700482957780E-04
(PID.TID 0000.0001) %MON dynstat_vvel_del2            =   1.5208699549074E-06
(PID.TID 0000.0001) %MON dynstat_wvel_max             =   1.7540757671509E-03
(PID.TID 0000.0001) %MON dynstat_wvel_min             =  -1.6906421147810E-03
(PID.TID 0000.0001) %MON dynstat_wvel_mean            =   7.3203134679731E-09
(PID.TID 0000.0001) %MON dynstat_wvel_sd              =   2.7922804606635E-05
(PID.TID 0000.0001) %MON dynstat_wvel_del2            =   1.1399886326375E-07
(PID.TID 0000.0001) %MON dynstat_theta_max            =   1.2000000000000E+00
(PID.TID 0000.0001) %MON dynstat_theta_min            =  -1.0000000000000E+00
(PID.TID 0000.0001) %MON dynstat_theta_mean           =   5.6841790679603E-01
(PID.TID 0000.0001) %MON dynstat_theta_sd             =   8.6821424715446E-01
(PID.TID 0000.0001) %MON dynstat_theta_del2           =   4.8457595944282E-06
(PID.TID 0000.0001) %MON dynstat_salt_max             =   3.4700000000000E+01
(PID.TID 0000.0001) %MON dynstat_salt_min             =   3.4000000000000E+01
(PID.TID 0000.0001) %MON dynstat_salt_mean            =   3.4498981256233E+01
(PID.TID 0000.0001) %MON dynstat_salt_sd              =   2.7622573799827E-01
(PID.TID 0000.0001) %MON dynstat_salt_del2            =   1.9188608227763E-06
(PID.TID 0000.0001) %MON advcfl_uvel_max              =   4.7224739510376E-03
(PID.TID 0000.0001) %MON advcfl_vvel_max              =   3.2521893322982E-03
(PID.TID 0000.0001) %MON advcfl_wvel_max              =   8.7703788357547E-03
(PID.TID 0000.0001) %MON advcfl_W_hf_max              =   8.7703788357547E-03
(PID.TID 0000.0001) %MON pe_b_mean                    =  -8.2963037752128E-01
(PID.TID 0000.0001) %MON ke_max                       =   8.9893466428924E-04
(PID.TID 0000.0001) %MON ke_mean                      =   1.1768127096235E-06
(PID.TID 0000.0001) %MON ke_vol                       =   4.2724677264819E+12
(PID.TID 0000.0001) // =======================================================
(PID.TID 0000.0001) // End MONITOR dynamic field statistics
(PID.TID 0000.0001) // =======================================================
(PID.TID 0000.0001) // =======================================================
(PID.TID 0000.0001) // Begin OBCS MONITOR field statistics
(PID.TID 0000.0001) // =======================================================
(PID.TID 0000.0001) %MON obc_N_vVel_max               =   1.4836331966126E-05
(PID.TID 0000.0001) %MON obc_N_vVel_min               =   1.4836331966125E-05
(PID.TID 0000.0001) %MON obc_N_vVel_mean              =   1.4836331966126E-05
(PID.TID 0000.0001) %MON obc_N_vVel_sd                =  -1.8663262570728E-23
(PID.TID 0000.0001) %MON obc_N_vVel_Int               =   9.7919790976429E+02
(PID.TID 0000.0001) // =======================================================
(PID.TID 0000.0001) // End OBCS MONITOR field statistics
(PID.TID 0000.0001) // =======================================================
 cg2d: Sum(rhs),rhsMax =   4.50741881639492E+00  2.99956591596822E+02
(PID.TID 0000.0001)      cg2d_init_res =   9.65587862999073E-06
(PID.TID 0000.0001)      cg2d_iters(min,last) =      -1      84
(PID.TID 0000.0001)      cg2d_last_res =   8.89680313605196E-12
(PID.TID 0000.0001) // =======================================================
(PID.TID 0000.0001) // Begin MONITOR dynamic field statistics
(PID.TID 0000.0001) // =======================================================
(PID.TID 0000.0001) %MON time_tsnumber                =                  1346
(PID.TID 0000.0001) %MON time_secondsf                =   1.3460000000000E+05
(PID.TID 0000.0001) %MON dynstat_eta_max              =   5.7987953348917E+00
(PID.TID 0000.0001) %MON dynstat_eta_min              =  -1.4190180454460E+01
(PID.TID 0000.0001) %MON dynstat_eta_mean             =  -2.5037592316022E+00
(PID.TID 0000.0001) %MON dynstat_eta_sd               =   4.9499428202258E+00
(PID.TID 0000.0001) %MON dynstat_eta_del2             =   2.0716271273824E-01
(PID.TID 0000.0001) %MON dynstat_uvel_max             =   1.0285884931619E-02
(PID.TID 0000.0001) %MON dynstat_uvel_min             =  -4.7330914798577E-02
(PID.TID 0000.0001) %MON dynstat_uvel_mean            =  -1.1021656372668E-07
(PID.TID 0000.0001) %MON dynstat_uvel_sd              =   1.3620474120012E-03
(PID.TID 0000.0001) %MON dynstat_uvel_del2            =   2.0348488549865E-06
(PID.TID 0000.0001) %MON dynstat_vvel_max             =   3.2572579489153E-02
(PID.TID 0000.0001) %MON dynstat_vvel_min             =  -1.5806534688846E-02
(PID.TID 0000.0001) %MON dynstat_vvel_mean            =   1.5157702198165E-05
(PID.TID 0000.0001) %MON dynstat_vvel_sd              =   7.3843861996617E-04
(PID.TID 0000.0001) %MON dynstat_vvel_del2            =   1.5239256543645E-06
(PID.TID 0000.0001) %MON dynstat_wvel_max             =   1.7572506897129E-03
(PID.TID 0000.0001) %MON dynstat_wvel_min             =  -1.6938013715465E-03
(PID.TID 0000.0001) %MON dynstat_wvel_mean            =   7.3475480806677E-09
(PID.TID 0000.0001) %MON dynstat_wvel_sd              =   2.7980872863082E-05
(PID.TID 0000.0001) %MON dynstat_wvel_del2            =   1.1421141670696E-07
(PID.TID 0000.0001) %MON dynstat_theta_max            =   1.2000000000000E+00
(PID.TID 0000.0001) %MON dynstat_theta_min            =  -1.0000000000000E+00
(PID.TID 0000.0001) %MON dynstat_theta_mean           =   5.6841650537966E-01
(PID.TID 0000.0001) %MON dynstat_theta_sd             =   8.6821350057070E-01
(PID.TID 0000.0001) %MON dynstat_theta_del2           =   4.8551306931127E-06
(PID.TID 0000.0001) %MON dynstat_salt_max             =   3.4700000000000E+01
(PID.TID 0000.0001) %MON dynstat_salt_min             =   3.4000000000000E+01
(PID.TID 0000.0001) %MON dynstat_salt_mean            =   3.4498980695048E+01
(PID.TID 0000.0001) %MON dynstat_salt_sd              =   2.7622545164528E-01
(PID.TID 0000.0001) %MON dynstat_salt_del2            =   1.9225923431054E-06
(PID.TID 0000.0001) %MON advcfl_uvel_max              =   4.7330914798577E-03
(PID.TID 0000.0001) %MON advcfl_vvel_max              =   3.2572579489153E-03
(PID.TID 0000.0001) %MON advcfl_wvel_max              =   8.7862534485643E-03
(PID.TID 0000.0001) %MON advcfl_W_hf_max              =   8.7862534485643E-03
(PID.TID 0000.0001) %MON pe_b_mean                    =  -8.2963115825050E-01
(PID.TID 0000.0001) %MON ke_max                       =   9.0337145936670E-04
(PID.TID 0000.0001) %MON ke_mean                      =   1.1819456054271E-06
(PID.TID 0000.0001) %MON ke_vol                       =   4.2724676983181E+12
(PID.TID 0000.0001) // =======================================================
(PID.TID 0000.0001) // End MONITOR dynamic field statistics
(PID.TID 0000.0001) // =======================================================
(PID.TID 0000.0001) // =======================================================
(PID.TID 0000.0001) // Begin OBCS MONITOR field statistics
(PID.TID 0000.0001) // =======================================================
(PID.TID 0000.0001) %MON obc_N_vVel_max               =   1.4853436637745E-05
(PID.TID 0000.0001) %MON obc_N_vVel_min               =   1.4853436637744E-05
(PID.TID 0000.0001) %MON obc_N_vVel_mean              =   1.4853436637745E-05
(PID.TID 0000.0001) %MON obc_N_vVel_sd                =  -2.0989708043533E-23
(PID.TID 0000.0001) %MON obc_N_vVel_Int               =   9.8032681809114E+02
(PID.TID 0000.0001) // =======================================================
(PID.TID 0000.0001) // End OBCS MONITOR field statistics
(PID.TID 0000.0001) // =======================================================
 cg2d: Sum(rhs),rhsMax =   4.50742618269277E+00  2.99956669041955E+02
(PID.TID 0000.0001)      cg2d_init_res =   9.67415233536455E-06
(PID.TID 0000.0001)      cg2d_iters(min,last) =      -1      84
(PID.TID 0000.0001)      cg2d_last_res =   8.90891649786496E-12
(PID.TID 0000.0001) // =======================================================
(PID.TID 0000.0001) // Begin MONITOR dynamic field statistics
(PID.TID 0000.0001) // =======================================================
(PID.TID 0000.0001) %MON time_tsnumber                =                  1347
(PID.TID 0000.0001) %MON time_secondsf                =   1.3470000000000E+05
(PID.TID 0000.0001) %MON dynstat_eta_max              =   5.7988168112062E+00
(PID.TID 0000.0001) %MON dynstat_eta_min              =  -1.4190210247524E+01
(PID.TID 0000.0001) %MON dynstat_eta_mean             =  -2.5037639698389E+00
(PID.TID 0000.0001) %MON dynstat_eta_sd               =   4.9499449073595E+00
(PID.TID 0000.0001) %MON dynstat_eta_del2             =   2.0716276049425E-01
(PID.TID 0000.0001) %MON dynstat_uvel_max             =   1.0310418587288E-02
(PID.TID 0000.0001) %MON dynstat_uvel_min             =  -4.7437222507400E-02
(PID.TID 0000.0001) %MON dynstat_uvel_mean            =  -1.1018116510312E-07
(PID.TID 0000.0001) %MON dynstat_uvel_sd              =   1.3651091526506E-03
(PID.TID 0000.0001) %MON dynstat_uvel_del2            =   2.0397850166808E-06
(PID.TID 0000.0001) %MON dynstat_vvel_max             =   3.2623255903351E-02
(PID.TID 0000.0001) %MON dynstat_vvel_min             =  -1.5845716332407E-02
(PID.TID 0000.0001) %MON dynstat_vvel_mean            =   1.5177528950091E-05
(PID.TID 0000.0001) %MON dynstat_vvel_sd              =   7.3987640348101E-04
(PID.TID 0000.0001) %MON dynstat_vvel_del2            =   1.5269841028442E-06
(PID.TID 0000.0001) %MON dynstat_wvel_max             =   1.7604262378567E-03
(PID.TID 0000.0001) %MON dynstat_wvel_min             =  -1.6969620791467E-03
(PID.TID 0000.0001) %MON dynstat_wvel_mean            =   7.3719661664460E-09
(PID.TID 0000.0001) %MON dynstat_wvel_sd              =   2.8039299570487E-05
(PID.TID 0000.0001) %MON dynstat_wvel_del2            =   1.1441635131822E-07
(PID.TID 0000.0001) %MON dynstat_theta_max            =   1.2000000000000E+00
(PID.TID 0000.0001) %MON dynstat_theta_min            =  -1.0000000000000E+00
(PID.TID 0000.0001) %MON dynstat_theta_mean           =   5.6841510144769E-01
(PID.TID 0000.0001) %MON dynstat_theta_sd             =   8.6821275281649E-01
(PID.TID 0000.0001) %MON dynstat_theta_del2           =   4.8645148407469E-06
(PID.TID 0000.0001) %MON dynstat_salt_max             =   3.4700000000000E+01
(PID.TID 0000.0001) %MON dynstat_salt_min             =   3.4000000000000E+01
(PID.TID 0000.0001) %MON dynstat_salt_mean            =   3.4498980132859E+01
(PID.TID 0000.0001) %MON dynstat_salt_sd              =   2.7622516485306E-01
(PID.TID 0000.0001) %MON dynstat_salt_del2            =   1.9263291076603E-06
(PID.TID 0000.0001) %MON advcfl_uvel_max              =   4.7437222507400E-03
(PID.TID 0000.0001) %MON advcfl_vvel_max              =   3.2623255903351E-03
(PID.TID 0000.0001) %MON advcfl_wvel_max              =   8.8021311892837E-03
(PID.TID 0000.0001) %MON advcfl_W_hf_max              =   8.8021311892837E-03
(PID.TID 0000.0001) %MON pe_b_mean                    =  -8.2963193674284E-01
(PID.TID 0000.0001) %MON ke_max                       =   9.0782579143257E-04
(PID.TID 0000.0001) %MON ke_mean                      =   1.1871007713128E-06
(PID.TID 0000.0001) %MON ke_vol                       =   4.2724676701643E+12
(PID.TID 0000.0001) // =======================================================
(PID.TID 0000.0001) // End MONITOR dynamic field statistics
(PID.TID 0000.0001) // =======================================================
(PID.TID 0000.0001) // =======================================================
(PID.TID 0000.0001) // Begin OBCS MONITOR field statistics
(PID.TID 0000.0001) // =======================================================
(PID.TID 0000.0001) %MON obc_N_vVel_max               =   1.4870754560408E-05
(PID.TID 0000.0001) %MON obc_N_vVel_min               =   1.4870754560408E-05
(PID.TID 0000.0001) %MON obc_N_vVel_mean              =   1.4870754560408E-05
(PID.TID 0000.0001) %MON obc_N_vVel_sd                =   5.3323853533396E-13
(PID.TID 0000.0001) %MON obc_N_vVel_Int               =   9.8146980098694E+02
(PID.TID 0000.0001) // =======================================================
(PID.TID 0000.0001) // End OBCS MONITOR field statistics
(PID.TID 0000.0001) // =======================================================
 cg2d: Sum(rhs),rhsMax =   4.50743354300073E+00  2.99956746690461E+02
(PID.TID 0000.0001)      cg2d_init_res =   9.69147302955968E-06
(PID.TID 0000.0001)      cg2d_iters(min,last) =      -1      84
(PID.TID 0000.0001)      cg2d_last_res =   8.91964107665484E-12
(PID.TID 0000.0001) // =======================================================
(PID.TID 0000.0001) // Begin MONITOR dynamic field statistics
(PID.TID 0000.0001) // =======================================================
(PID.TID 0000.0001) %MON time_tsnumber                =                  1348
(PID.TID 0000.0001) %MON time_secondsf                =   1.3480000000000E+05
(PID.TID 0000.0001) %MON dynstat_eta_max              =   5.7988383399352E+00
(PID.TID 0000.0001) %MON dynstat_eta_min              =  -1.4190240060211E+01
(PID.TID 0000.0001) %MON dynstat_eta_mean             =  -2.5037687064481E+00
(PID.TID 0000.0001) %MON dynstat_eta_sd               =   4.9499469944616E+00
(PID.TID 0000.0001) %MON dynstat_eta_del2             =   2.0716280832495E-01
(PID.TID 0000.0001) %MON dynstat_uvel_max             =   1.0334996304611E-02
(PID.TID 0000.0001) %MON dynstat_uvel_min             =  -4.7543662374177E-02
(PID.TID 0000.0001) %MON dynstat_uvel_mean            =  -1.1012745158659E-07
(PID.TID 0000.0001) %MON dynstat_uvel_sd              =   1.3681769633121E-03
(PID.TID 0000.0001) %MON dynstat_uvel_del2            =   2.0447333194258E-06
(PID.TID 0000.0001) %MON dynstat_vvel_max             =   3.2673922228323E-02
(PID.TID 0000.0001) %MON dynstat_vvel_min             =  -1.5884982322509E-02
(PID.TID 0000.0001) %MON dynstat_vvel_mean            =   1.5196979873021E-05
(PID.TID 0000.0001) %MON dynstat_vvel_sd              =   7.4131807809119E-04
(PID.TID 0000.0001) %MON dynstat_vvel_del2            =   1.5300449508032E-06
(PID.TID 0000.0001) %MON dynstat_wvel_max             =   1.7636023927793E-03
(PID.TID 0000.0001) %MON dynstat_wvel_min             =  -1.7001242165443E-03
(PID.TID 0000.0001) %MON dynstat_wvel_mean            =   7.3931516779080E-09
(PID.TID 0000.0001) %MON dynstat_wvel_sd              =   2.8097815724559E-05
(PID.TID 0000.0001) %MON dynstat_wvel_del2            =   1.1461217664181E-07
(PID.TID 0000.0001) %MON dynstat_theta_max            =   1.2000000000000E+00
(PID.TID 0000.0001) %MON dynstat_theta_min            =  -1.0000000000000E+00
(PID.TID 0000.0001) %MON dynstat_theta_mean           =   5.6841369499102E-01
(PID.TID 0000.0001) %MON dynstat_theta_sd             =   8.6821200389255E-01
(PID.TID 0000.0001) %MON dynstat_theta_del2           =   4.8739125682045E-06
(PID.TID 0000.0001) %MON dynstat_salt_max             =   3.4700000000000E+01
(PID.TID 0000.0001) %MON dynstat_salt_min             =   3.4000000000000E+01
(PID.TID 0000.0001) %MON dynstat_salt_mean            =   3.4498979569663E+01
(PID.TID 0000.0001) %MON dynstat_salt_sd              =   2.7622487762173E-01
(PID.TID 0000.0001) %MON dynstat_salt_del2            =   1.9300712839172E-06
(PID.TID 0000.0001) %MON advcfl_uvel_max              =   4.7543662374177E-03
(PID.TID 0000.0001) %MON advcfl_vvel_max              =   3.2673922228323E-03
(PID.TID 0000.0001) %MON advcfl_wvel_max              =   8.8180119638963E-03
(PID.TID 0000.0001) %MON advcfl_W_hf_max              =   8.8180119638963E-03
(PID.TID 0000.0001) %MON pe_b_mean                    =  -8.2963271286492E-01
(PID.TID 0000.0001) %MON ke_max                       =   9.1229769520693E-04
(PID.TID 0000.0001) %MON ke_mean                      =   1.1922782120495E-06
(PID.TID 0000.0001) %MON ke_vol                       =   4.2724676420192E+12
(PID.TID 0000.0001) // =======================================================
(PID.TID 0000.0001) // End MONITOR dynamic field statistics
(PID.TID 0000.0001) // =======================================================
(PID.TID 0000.0001) // =======================================================
(PID.TID 0000.0001) // Begin OBCS MONITOR field statistics
(PID.TID 0000.0001) // =======================================================
(PID.TID 0000.0001) %MON obc_N_vVel_max               =   1.4887962292711E-05
(PID.TID 0000.0001) %MON obc_N_vVel_min               =   1.4887962292710E-05
(PID.TID 0000.0001) %MON obc_N_vVel_mean              =   1.4887962292710E-05
(PID.TID 0000.0001) %MON obc_N_vVel_sd                =   4.2507324669350E-12
(PID.TID 0000.0001) %MON obc_N_vVel_Int               =   9.8260551131889E+02
(PID.TID 0000.0001) // =======================================================
(PID.TID 0000.0001) // End OBCS MONITOR field statistics
(PID.TID 0000.0001) // =======================================================
 cg2d: Sum(rhs),rhsMax =   4.50744089695673E+00  2.99956824504977E+02
(PID.TID 0000.0001)      cg2d_init_res =   9.70773533455369E-06
(PID.TID 0000.0001)      cg2d_iters(min,last) =      -1      84
(PID.TID 0000.0001)      cg2d_last_res =   8.92899318562049E-12
(PID.TID 0000.0001) // =======================================================
(PID.TID 0000.0001) // Begin MONITOR dynamic field statistics
(PID.TID 0000.0001) // =======================================================
(PID.TID 0000.0001) %MON time_tsnumber                =                  1349
(PID.TID 0000.0001) %MON time_secondsf                =   1.3490000000000E+05
(PID.TID 0000.0001) %MON dynstat_eta_max              =   5.7988599228546E+00
(PID.TID 0000.0001) %MON dynstat_eta_min              =  -1.4190269890911E+01
(PID.TID 0000.0001) %MON dynstat_eta_mean             =  -2.5037734409167E+00
(PID.TID 0000.0001) %MON dynstat_eta_sd               =   4.9499490810803E+00
(PID.TID 0000.0001) %MON dynstat_eta_del2             =   2.0716285622993E-01
(PID.TID 0000.0001) %MON dynstat_uvel_max             =   1.0359618138150E-02
(PID.TID 0000.0001) %MON dynstat_uvel_min             =  -4.7650234132798E-02
(PID.TID 0000.0001) %MON dynstat_uvel_mean            =  -1.1005600247690E-07
(PID.TID 0000.0001) %MON dynstat_uvel_sd              =   1.3712508545579E-03
(PID.TID 0000.0001) %MON dynstat_uvel_del2            =   2.0496937915335E-06
(PID.TID 0000.0001) %MON dynstat_vvel_max             =   3.2724578129026E-02
(PID.TID 0000.0001) %MON dynstat_vvel_min             =  -1.5924332852775E-02
(PID.TID 0000.0001) %MON dynstat_vvel_mean            =   1.5215697949301E-05
(PID.TID 0000.0001) %MON dynstat_vvel_sd              =   7.4276354321456E-04
(PID.TID 0000.0001) %MON dynstat_vvel_del2            =   1.5331080828741E-06
(PID.TID 0000.0001) %MON dynstat_wvel_max             =   1.7667791356328E-03
(PID.TID 0000.0001) %MON dynstat_wvel_min             =  -1.7032877626846E-03
(PID.TID 0000.0001) %MON dynstat_wvel_mean            =   7.4107535758655E-09
(PID.TID 0000.0001) %MON dynstat_wvel_sd              =   2.8156267294306E-05
(PID.TID 0000.0001) %MON dynstat_wvel_del2            =   1.1479828790165E-07
(PID.TID 0000.0001) %MON dynstat_theta_max            =   1.2000000000000E+00
(PID.TID 0000.0001) %MON dynstat_theta_min            =  -1.0000000000000E+00
(PID.TID 0000.0001) %MON dynstat_theta_mean           =   5.6841228600049E-01
(PID.TID 0000.0001) %MON dynstat_theta_sd             =   8.6821125379917E-01
(PID.TID 0000.0001) %MON dynstat_theta_del2           =   4.8833240840720E-06
(PID.TID 0000.0001) %MON dynstat_salt_max             =   3.4700000000000E+01
(PID.TID 0000.0001) %MON dynstat_salt_min             =   3.4000000000000E+01
(PID.TID 0000.0001) %MON dynstat_salt_mean            =   3.4498979005456E+01
(PID.TID 0000.0001) %MON dynstat_salt_sd              =   2.7622458995161E-01
(PID.TID 0000.0001) %MON dynstat_salt_del2            =   1.9338189989298E-06
(PID.TID 0000.0001) %MON advcfl_uvel_max              =   4.7650234132798E-03
(PID.TID 0000.0001) %MON advcfl_vvel_max              =   3.2724578129026E-03
(PID.TID 0000.0001) %MON advcfl_wvel_max              =   8.8338956781640E-03
(PID.TID 0000.0001) %MON advcfl_W_hf_max              =   8.8338956781640E-03
(PID.TID 0000.0001) %MON pe_b_mean                    =  -8.2963348639391E-01
(PID.TID 0000.0001) %MON ke_max                       =   9.1678720537407E-04
(PID.TID 0000.0001) %MON ke_mean                      =   1.1974779333138E-06
(PID.TID 0000.0001) %MON ke_vol                       =   4.2724676138837E+12
(PID.TID 0000.0001) // =======================================================
(PID.TID 0000.0001) // End MONITOR dynamic field statistics
(PID.TID 0000.0001) // =======================================================
(PID.TID 0000.0001) // =======================================================
(PID.TID 0000.0001) // Begin OBCS MONITOR field statistics
(PID.TID 0000.0001) // =======================================================
(PID.TID 0000.0001) %MON obc_N_vVel_max               =   1.4904741236785E-05
(PID.TID 0000.0001) %MON obc_N_vVel_min               =   1.4904741236785E-05
(PID.TID 0000.0001) %MON obc_N_vVel_mean              =   1.4904741236785E-05
(PID.TID 0000.0001) %MON obc_N_vVel_sd                =   2.6320405829188E-12
(PID.TID 0000.0001) %MON obc_N_vVel_Int               =   9.8371292162781E+02
(PID.TID 0000.0001) // =======================================================
(PID.TID 0000.0001) // End OBCS MONITOR field statistics
(PID.TID 0000.0001) // =======================================================
 cg2d: Sum(rhs),rhsMax =   4.50744824362135E+00  2.99956902445649E+02
(PID.TID 0000.0001)      cg2d_init_res =   9.72286406560306E-06
(PID.TID 0000.0001)      cg2d_iters(min,last) =      -1      84
(PID.TID 0000.0001)      cg2d_last_res =   8.93701575364657E-12
(PID.TID 0000.0001) // =======================================================
(PID.TID 0000.0001) // Begin MONITOR dynamic field statistics
(PID.TID 0000.0001) // =======================================================
(PID.TID 0000.0001) %MON time_tsnumber                =                  1350
(PID.TID 0000.0001) %MON time_secondsf                =   1.3500000000000E+05
(PID.TID 0000.0001) %MON dynstat_eta_max              =   5.7988815623788E+00
(PID.TID 0000.0001) %MON dynstat_eta_min              =  -1.4190299737687E+01
(PID.TID 0000.0001) %MON dynstat_eta_mean             =  -2.5037781723903E+00
(PID.TID 0000.0001) %MON dynstat_eta_sd               =   4.9499511666662E+00
(PID.TID 0000.0001) %MON dynstat_eta_del2             =   2.0716290420872E-01
(PID.TID 0000.0001) %MON dynstat_uvel_max             =   1.0384284150064E-02
(PID.TID 0000.0001) %MON dynstat_uvel_min             =  -4.7756937514079E-02
(PID.TID 0000.0001) %MON dynstat_uvel_mean            =  -1.0996771199603E-07
(PID.TID 0000.0001) %MON dynstat_uvel_sd              =   1.3743308369556E-03
(PID.TID 0000.0001) %MON dynstat_uvel_del2            =   2.0546664607818E-06
(PID.TID 0000.0001) %MON dynstat_vvel_max             =   3.2775223274041E-02
(PID.TID 0000.0001) %MON dynstat_vvel_min             =  -1.5963768111869E-02
(PID.TID 0000.0001) %MON dynstat_vvel_mean            =   1.5233343127232E-05
(PID.TID 0000.0001) %MON dynstat_vvel_sd              =   7.4421270135142E-04
(PID.TID 0000.0001) %MON dynstat_vvel_del2            =   1.5361736204868E-06
(PID.TID 0000.0001) %MON dynstat_wvel_max             =   1.7699564475323E-03
(PID.TID 0000.0001) %MON dynstat_wvel_min             =  -1.7064526966802E-03
(PID.TID 0000.0001) %MON dynstat_wvel_mean            =   7.4244919290490E-09
(PID.TID 0000.0001) %MON dynstat_wvel_sd              =   2.8214622132848E-05
(PID.TID 0000.0001) %MON dynstat_wvel_del2            =   1.1497500080143E-07
(PID.TID 0000.0001) %MON dynstat_theta_max            =   1.2000000000000E+00
(PID.TID 0000.0001) %MON dynstat_theta_min            =  -1.0000000000000E+00
(PID.TID 0000.0001) %MON dynstat_theta_mean           =   5.6841087446688E-01
(PID.TID 0000.0001) %MON dynstat_theta_sd             =   8.6821050253825E-01
(PID.TID 0000.0001) %MON dynstat_theta_del2           =   4.8927495352292E-06
(PID.TID 0000.0001) %MON dynstat_salt_max             =   3.4700000000000E+01
(PID.TID 0000.0001) %MON dynstat_salt_min             =   3.4000000000000E+01
(PID.TID 0000.0001) %MON dynstat_salt_mean            =   3.4498978440236E+01
(PID.TID 0000.0001) %MON dynstat_salt_sd              =   2.7622430184313E-01
(PID.TID 0000.0001) %MON dynstat_salt_del2            =   1.9375722590300E-06
(PID.TID 0000.0001) %MON advcfl_uvel_max              =   4.7756937514079E-03
(PID.TID 0000.0001) %MON advcfl_vvel_max              =   3.2775223274041E-03
(PID.TID 0000.0001) %MON advcfl_wvel_max              =   8.8497822376616E-03
(PID.TID 0000.0001) %MON advcfl_W_hf_max              =   8.8497822376616E-03
(PID.TID 0000.0001) %MON pe_b_mean                    =  -8.2963425702230E-01
(PID.TID 0000.0001) %MON ke_max                       =   9.2129435659852E-04
(PID.TID 0000.0001) %MON ke_mean                      =   1.2026999429995E-06
(PID.TID 0000.0001) %MON ke_vol                       =   4.2724675857610E+12
(PID.TID 0000.0001) // =======================================================
(PID.TID 0000.0001) // End MONITOR dynamic field statistics
(PID.TID 0000.0001) // =======================================================
(PID.TID 0000.0001) // =======================================================
(PID.TID 0000.0001) // Begin OBCS MONITOR field statistics
(PID.TID 0000.0001) // =======================================================
(PID.TID 0000.0001) %MON obc_N_vVel_max               =   1.4920783680259E-05
(PID.TID 0000.0001) %MON obc_N_vVel_min               =   1.4920783680258E-05
(PID.TID 0000.0001) %MON obc_N_vVel_mean              =   1.4920783680259E-05
(PID.TID 0000.0001) %MON obc_N_vVel_sd                =  -1.8534015600016E-23
(PID.TID 0000.0001) %MON obc_N_vVel_Int               =   9.8477172289708E+02
(PID.TID 0000.0001) // =======================================================
(PID.TID 0000.0001) // End OBCS MONITOR field statistics
(PID.TID 0000.0001) // =======================================================
 cg2d: Sum(rhs),rhsMax =   4.50745558150008E+00  2.99956980470841E+02
(PID.TID 0000.0001)      cg2d_init_res =   9.73681496545719E-06
(PID.TID 0000.0001)      cg2d_iters(min,last) =      -1      84
(PID.TID 0000.0001)      cg2d_last_res =   8.94377452884470E-12
(PID.TID 0000.0001) // =======================================================
(PID.TID 0000.0001) // Begin MONITOR dynamic field statistics
(PID.TID 0000.0001) // =======================================================
(PID.TID 0000.0001) %MON time_tsnumber                =                  1351
(PID.TID 0000.0001) %MON time_secondsf                =   1.3510000000000E+05
(PID.TID 0000.0001) %MON dynstat_eta_max              =   5.7989032615190E+00
(PID.TID 0000.0001) %MON dynstat_eta_min              =  -1.4190329598368E+01
(PID.TID 0000.0001) %MON dynstat_eta_mean             =  -2.5037828996911E+00
(PID.TID 0000.0001) %MON dynstat_eta_sd               =   4.9499532505834E+00
(PID.TID 0000.0001) %MON dynstat_eta_del2             =   2.0716295226083E-01
(PID.TID 0000.0001) %MON dynstat_uvel_max             =   1.0408994401409E-02
(PID.TID 0000.0001) %MON dynstat_uvel_min             =  -4.7863772246150E-02
(PID.TID 0000.0001) %MON dynstat_uvel_mean            =  -1.0986377085041E-07
(PID.TID 0000.0001) %MON dynstat_uvel_sd              =   1.3774169210381E-03
(PID.TID 0000.0001) %MON dynstat_uvel_del2            =   2.0596513540772E-06
(PID.TID 0000.0001) %MON dynstat_vvel_max             =   3.2825857336917E-02
(PID.TID 0000.0001) %MON dynstat_vvel_min             =  -1.6003288282649E-02
(PID.TID 0000.0001) %MON dynstat_vvel_mean            =   1.5249598712231E-05
(PID.TID 0000.0001) %MON dynstat_vvel_sd              =   7.4566545859001E-04
(PID.TID 0000.0001) %MON dynstat_vvel_del2            =   1.5392419078069E-06
(PID.TID 0000.0001) %MON dynstat_wvel_max             =   1.7731343095309E-03
(PID.TID 0000.0001) %MON dynstat_wvel_min             =  -1.7096189978612E-03
(PID.TID 0000.0001) %MON dynstat_wvel_mean            =   7.4341632929788E-09
(PID.TID 0000.0001) %MON dynstat_wvel_sd              =   2.8272965782232E-05
(PID.TID 0000.0001) %MON dynstat_wvel_del2            =   1.1514351394632E-07
(PID.TID 0000.0001) %MON dynstat_theta_max            =   1.2000000000000E+00
(PID.TID 0000.0001) %MON dynstat_theta_min            =  -1.0000000000000E+00
(PID.TID 0000.0001) %MON dynstat_theta_mean           =   5.6840946038096E-01
(PID.TID 0000.0001) %MON dynstat_theta_sd             =   8.6820975011433E-01
(PID.TID 0000.0001) %MON dynstat_theta_del2           =   4.9021891540748E-06
(PID.TID 0000.0001) %MON dynstat_salt_max             =   3.4700000000000E+01
(PID.TID 0000.0001) %MON dynstat_salt_min             =   3.4000000000000E+01
(PID.TID 0000.0001) %MON dynstat_salt_mean            =   3.4498977873998E+01
(PID.TID 0000.0001) %MON dynstat_salt_sd              =   2.7622401329781E-01
(PID.TID 0000.0001) %MON dynstat_salt_del2            =   1.9413311205210E-06
(PID.TID 0000.0001) %MON advcfl_uvel_max              =   4.7863772246150E-03
(PID.TID 0000.0001) %MON advcfl_vvel_max              =   3.2825857336917E-03
(PID.TID 0000.0001) %MON advcfl_wvel_max              =   8.8656715476546E-03
(PID.TID 0000.0001) %MON advcfl_W_hf_max              =   8.8656715476546E-03
(PID.TID 0000.0001) %MON pe_b_mean                    =  -8.2963502436422E-01
(PID.TID 0000.0001) %MON ke_max                       =   9.2581918354667E-04
(PID.TID 0000.0001) %MON ke_mean                      =   1.2079442516758E-06
(PID.TID 0000.0001) %MON ke_vol                       =   4.2724675576560E+12
(PID.TID 0000.0001) // =======================================================
(PID.TID 0000.0001) // End MONITOR dynamic field statistics
(PID.TID 0000.0001) // =======================================================
(PID.TID 0000.0001) // =======================================================
(PID.TID 0000.0001) // Begin OBCS MONITOR field statistics
(PID.TID 0000.0001) // =======================================================
(PID.TID 0000.0001) %MON obc_N_vVel_max               =   1.4935798606433E-05
(PID.TID 0000.0001) %MON obc_N_vVel_min               =   1.4935798606433E-05
(PID.TID 0000.0001) %MON obc_N_vVel_mean              =   1.4935798606433E-05
(PID.TID 0000.0001) %MON obc_N_vVel_sd                =  -4.3685476100457E-24
(PID.TID 0000.0001) %MON obc_N_vVel_Int               =   9.8576270802457E+02
(PID.TID 0000.0001) // =======================================================
(PID.TID 0000.0001) // End OBCS MONITOR field statistics
(PID.TID 0000.0001) // =======================================================
 cg2d: Sum(rhs),rhsMax =   4.50746290857572E+00  2.99957058537920E+02
(PID.TID 0000.0001)      cg2d_init_res =   9.74957399928491E-06
(PID.TID 0000.0001)      cg2d_iters(min,last) =      -1      84
(PID.TID 0000.0001)      cg2d_last_res =   8.94936387854804E-12
(PID.TID 0000.0001) // =======================================================
(PID.TID 0000.0001) // Begin MONITOR dynamic field statistics
(PID.TID 0000.0001) // =======================================================
(PID.TID 0000.0001) %MON time_tsnumber                =                  1352
(PID.TID 0000.0001) %MON time_secondsf                =   1.3520000000000E+05
(PID.TID 0000.0001) %MON dynstat_eta_max              =   5.7989250238164E+00
(PID.TID 0000.0001) %MON dynstat_eta_min              =  -1.4190359470372E+01
(PID.TID 0000.0001) %MON dynstat_eta_mean             =  -2.5037876213429E+00
(PID.TID 0000.0001) %MON dynstat_eta_sd               =   4.9499553321226E+00
(PID.TID 0000.0001) %MON dynstat_eta_del2             =   2.0716300038573E-01
(PID.TID 0000.0001) %MON dynstat_uvel_max             =   1.0433748950575E-02
(PID.TID 0000.0001) %MON dynstat_uvel_min             =  -4.7970738054850E-02
(PID.TID 0000.0001) %MON dynstat_uvel_mean            =  -1.0974565189685E-07
(PID.TID 0000.0001) %MON dynstat_uvel_sd              =   1.3805091172918E-03
(PID.TID 0000.0001) %MON dynstat_uvel_del2            =   2.0646484977980E-06
(PID.TID 0000.0001) %MON dynstat_vvel_max             =   3.2876479997344E-02
(PID.TID 0000.0001) %MON dynstat_vvel_min             =  -1.6042893540762E-02
(PID.TID 0000.0001) %MON dynstat_vvel_mean            =   1.5264177224355E-05
(PID.TID 0000.0001) %MON dynstat_vvel_sd              =   7.4712172352012E-04
(PID.TID 0000.0001) %MON dynstat_vvel_del2            =   1.5423134795206E-06
(PID.TID 0000.0001) %MON dynstat_wvel_max             =   1.7763127026407E-03
(PID.TID 0000.0001) %MON dynstat_wvel_min             =  -1.7127866458027E-03
(PID.TID 0000.0001) %MON dynstat_wvel_mean            =   7.4396431702223E-09
(PID.TID 0000.0001) %MON dynstat_wvel_sd              =   2.8331486729419E-05
(PID.TID 0000.0001) %MON dynstat_wvel_del2            =   1.1530580310615E-07
(PID.TID 0000.0001) %MON dynstat_theta_max            =   1.2000000000000E+00
(PID.TID 0000.0001) %MON dynstat_theta_min            =  -1.0000000000000E+00
(PID.TID 0000.0001) %MON dynstat_theta_mean           =   5.6840804373343E-01
(PID.TID 0000.0001) %MON dynstat_theta_sd             =   8.6820899653390E-01
(PID.TID 0000.0001) %MON dynstat_theta_del2           =   4.9116428593293E-06
(PID.TID 0000.0001) %MON dynstat_salt_max             =   3.4700000000000E+01
(PID.TID 0000.0001) %MON dynstat_salt_min             =   3.4000000000000E+01
(PID.TID 0000.0001) %MON dynstat_salt_mean            =   3.4498977306739E+01
(PID.TID 0000.0001) %MON dynstat_salt_sd              =   2.7622372431758E-01
(PID.TID 0000.0001) %MON dynstat_salt_del2            =   1.9450956346246E-06
(PID.TID 0000.0001) %MON advcfl_uvel_max              =   4.7970738054850E-03
(PID.TID 0000.0001) %MON advcfl_vvel_max              =   3.2876479997344E-03
(PID.TID 0000.0001) %MON advcfl_wvel_max              =   8.8815635132037E-03
(PID.TID 0000.0001) %MON advcfl_W_hf_max              =   8.8815635132037E-03
(PID.TID 0000.0001) %MON pe_b_mean                    =  -8.2963578796323E-01
(PID.TID 0000.0001) %MON ke_max                       =   9.3036172089879E-04
(PID.TID 0000.0001) %MON ke_mean                      =   1.2132108718762E-06
(PID.TID 0000.0001) %MON ke_vol                       =   4.2724675295758E+12
(PID.TID 0000.0001) // =======================================================
(PID.TID 0000.0001) // End MONITOR dynamic field statistics
(PID.TID 0000.0001) // =======================================================
(PID.TID 0000.0001) // =======================================================
(PID.TID 0000.0001) // Begin OBCS MONITOR field statistics
(PID.TID 0000.0001) // =======================================================
(PID.TID 0000.0001) %MON obc_N_vVel_max               =   1.4949517109344E-05
(PID.TID 0000.0001) %MON obc_N_vVel_min               =   1.4949517109344E-05
(PID.TID 0000.0001) %MON obc_N_vVel_mean              =   1.4949517109344E-05
(PID.TID 0000.0001) %MON obc_N_vVel_sd                =   3.3724966156550E-12
(PID.TID 0000.0001) %MON obc_N_vVel_Int               =   9.8666812921670E+02
(PID.TID 0000.0001) // =======================================================
(PID.TID 0000.0001) // End OBCS MONITOR field statistics
(PID.TID 0000.0001) // =======================================================
 cg2d: Sum(rhs),rhsMax =   4.50747022235222E+00  2.99957136603938E+02
(PID.TID 0000.0001)      cg2d_init_res =   9.76115609236148E-06
(PID.TID 0000.0001)      cg2d_iters(min,last) =      -1      84
(PID.TID 0000.0001)      cg2d_last_res =   8.95390104269644E-12
(PID.TID 0000.0001) // =======================================================
(PID.TID 0000.0001) // Begin MONITOR dynamic field statistics
(PID.TID 0000.0001) // =======================================================
(PID.TID 0000.0001) %MON time_tsnumber                =                  1353
(PID.TID 0000.0001) %MON time_secondsf                =   1.3530000000000E+05
(PID.TID 0000.0001) %MON dynstat_eta_max              =   5.7989468532767E+00
(PID.TID 0000.0001) %MON dynstat_eta_min              =  -1.4190389350970E+01
(PID.TID 0000.0001) %MON dynstat_eta_mean             =  -2.5037923356005E+00
(PID.TID 0000.0001) %MON dynstat_eta_sd               =   4.9499574105148E+00
(PID.TID 0000.0001) %MON dynstat_eta_del2             =   2.0716304858290E-01
(PID.TID 0000.0001) %MON dynstat_uvel_max             =   1.0458547853052E-02
(PID.TID 0000.0001) %MON dynstat_uvel_min             =  -4.8077834664128E-02
(PID.TID 0000.0001) %MON dynstat_uvel_mean            =  -1.0961508676553E-07
(PID.TID 0000.0001) %MON dynstat_uvel_sd              =   1.3836074361487E-03
(PID.TID 0000.0001) %MON dynstat_uvel_del2            =   2.0696579183896E-06
(PID.TID 0000.0001) %MON dynstat_vvel_max             =   3.2927090942268E-02
(PID.TID 0000.0001) %MON dynstat_vvel_min             =  -1.6082584053617E-02
(PID.TID 0000.0001) %MON dynstat_vvel_mean            =   1.5276825679745E-05
(PID.TID 0000.0001) %MON dynstat_vvel_sd              =   7.4858140504533E-04
(PID.TID 0000.0001) %MON dynstat_vvel_del2            =   1.5453890149616E-06
(PID.TID 0000.0001) %MON dynstat_wvel_max             =   1.7794916077926E-03
(PID.TID 0000.0001) %MON dynstat_wvel_min             =  -1.7159556204284E-03
(PID.TID 0000.0001) %MON dynstat_wvel_mean            =   7.4408878027134E-09
(PID.TID 0000.0001) %MON dynstat_wvel_sd              =   2.8390452506752E-05
(PID.TID 0000.0001) %MON dynstat_wvel_del2            =   1.1546445665600E-07
(PID.TID 0000.0001) %MON dynstat_theta_max            =   1.2000000000000E+00
(PID.TID 0000.0001) %MON dynstat_theta_min            =  -1.0000000000000E+00
(PID.TID 0000.0001) %MON dynstat_theta_mean           =   5.6840662451502E-01
(PID.TID 0000.0001) %MON dynstat_theta_sd             =   8.6820824180205E-01
(PID.TID 0000.0001) %MON dynstat_theta_del2           =   4.9211104448923E-06
(PID.TID 0000.0001) %MON dynstat_salt_max             =   3.4700000000000E+01
(PID.TID 0000.0001) %MON dynstat_salt_min             =   3.4000000000000E+01
(PID.TID 0000.0001) %MON dynstat_salt_mean            =   3.4498976738457E+01
(PID.TID 0000.0001) %MON dynstat_salt_sd              =   2.7622343490429E-01
(PID.TID 0000.0001) %MON dynstat_salt_del2            =   1.9488659262721E-06
(PID.TID 0000.0001) %MON advcfl_uvel_max              =   4.8077834664128E-03
(PID.TID 0000.0001) %MON advcfl_vvel_max              =   3.2927090942268E-03
(PID.TID 0000.0001) %MON advcfl_wvel_max              =   8.8974580389630E-03
(PID.TID 0000.0001) %MON advcfl_W_hf_max              =   8.8974580389630E-03
(PID.TID 0000.0001) %MON pe_b_mean                    =  -8.2963654730141E-01
(PID.TID 0000.0001) %MON ke_max                       =   9.3492200336639E-04
(PID.TID 0000.0001) %MON ke_mean                      =   1.2184998165521E-06
(PID.TID 0000.0001) %MON ke_vol                       =   4.2724675015292E+12
(PID.TID 0000.0001) // =======================================================
(PID.TID 0000.0001) // End MONITOR dynamic field statistics
(PID.TID 0000.0001) // =======================================================
(PID.TID 0000.0001) // =======================================================
(PID.TID 0000.0001) // Begin OBCS MONITOR field statistics
(PID.TID 0000.0001) // =======================================================
(PID.TID 0000.0001) %MON obc_N_vVel_max               =   1.4961697373289E-05
(PID.TID 0000.0001) %MON obc_N_vVel_min               =   1.4961697373289E-05
(PID.TID 0000.0001) %MON obc_N_vVel_mean              =   1.4961697373289E-05
(PID.TID 0000.0001) %MON obc_N_vVel_sd                =  -4.2909994276188E-24
(PID.TID 0000.0001) %MON obc_N_vVel_Int               =   9.8747202663707E+02
(PID.TID 0000.0001) // =======================================================
(PID.TID 0000.0001) // End OBCS MONITOR field statistics
(PID.TID 0000.0001) // =======================================================
 cg2d: Sum(rhs),rhsMax =   4.50747751989398E+00  2.99957214626485E+02
(PID.TID 0000.0001)      cg2d_init_res =   9.77158674569027E-06
(PID.TID 0000.0001)      cg2d_iters(min,last) =      -1      84
(PID.TID 0000.0001)      cg2d_last_res =   8.95751850376545E-12
(PID.TID 0000.0001) // =======================================================
(PID.TID 0000.0001) // Begin MONITOR dynamic field statistics
(PID.TID 0000.0001) // =======================================================
(PID.TID 0000.0001) %MON time_tsnumber                =                  1354
(PID.TID 0000.0001) %MON time_secondsf                =   1.3540000000000E+05
(PID.TID 0000.0001) %MON dynstat_eta_max              =   5.7989687542892E+00
(PID.TID 0000.0001) %MON dynstat_eta_min              =  -1.4190419237272E+01
(PID.TID 0000.0001) %MON dynstat_eta_mean             =  -2.5037970404794E+00
(PID.TID 0000.0001) %MON dynstat_eta_sd               =   4.9499594849467E+00
(PID.TID 0000.0001) %MON dynstat_eta_del2             =   2.0716309685250E-01
(PID.TID 0000.0001) %MON dynstat_uvel_max             =   1.0483391182264E-02
(PID.TID 0000.0001) %MON dynstat_uvel_min             =  -4.8185061796279E-02
(PID.TID 0000.0001) %MON dynstat_uvel_mean            =  -1.0947402284179E-07
(PID.TID 0000.0001) %MON dynstat_uvel_sd              =   1.3867118872196E-03
(PID.TID 0000.0001) %MON dynstat_uvel_del2            =   2.0746796421499E-06
(PID.TID 0000.0001) %MON dynstat_vvel_max             =   3.2977689866740E-02
(PID.TID 0000.0001) %MON dynstat_vvel_min             =  -1.6122359842528E-02
(PID.TID 0000.0001) %MON dynstat_vvel_mean            =   1.5287330218021E-05
(PID.TID 0000.0001) %MON dynstat_vvel_sd              =   7.5004440893115E-04
(PID.TID 0000.0001) %MON dynstat_vvel_del2            =   1.5484692755222E-06
(PID.TID 0000.0001) %MON dynstat_wvel_max             =   1.7826710058543E-03
(PID.TID 0000.0001) %MON dynstat_wvel_min             =  -1.7191261881060E-03
(PID.TID 0000.0001) %MON dynstat_wvel_mean            =   7.4379350757786E-09
(PID.TID 0000.0001) %MON dynstat_wvel_sd              =   2.8450178584045E-05
(PID.TID 0000.0001) %MON dynstat_wvel_del2            =   1.1562246565290E-07
(PID.TID 0000.0001) %MON dynstat_theta_max            =   1.2000000000000E+00
(PID.TID 0000.0001) %MON dynstat_theta_min            =  -1.0000000000000E+00
(PID.TID 0000.0001) %MON dynstat_theta_mean           =   5.6840520271571E-01
(PID.TID 0000.0001) %MON dynstat_theta_sd             =   8.6820748592360E-01
(PID.TID 0000.0001) %MON dynstat_theta_del2           =   4.9305917849714E-06
(PID.TID 0000.0001) %MON dynstat_salt_max             =   3.4700000000000E+01
(PID.TID 0000.0001) %MON dynstat_salt_min             =   3.4000000000000E+01
(PID.TID 0000.0001) %MON dynstat_salt_mean            =   3.4498976169148E+01
(PID.TID 0000.0001) %MON dynstat_salt_sd              =   2.7622314505914E-01
(PID.TID 0000.0001) %MON dynstat_salt_del2            =   1.9526417309195E-06
(PID.TID 0000.0001) %MON advcfl_uvel_max              =   4.8185061796279E-03
(PID.TID 0000.0001) %MON advcfl_vvel_max              =   3.2977689866740E-03
(PID.TID 0000.0001) %MON advcfl_wvel_max              =   8.9133550292714E-03
(PID.TID 0000.0001) %MON advcfl_W_hf_max              =   8.9133550292714E-03
(PID.TID 0000.0001) %MON pe_b_mean                    =  -8.2963730180675E-01
(PID.TID 0000.0001) %MON ke_max                       =   9.3950006570294E-04
(PID.TID 0000.0001) %MON ke_mean                      =   1.2238110955172E-06
(PID.TID 0000.0001) %MON ke_vol                       =   4.2724674735265E+12
(PID.TID 0000.0001) // =======================================================
(PID.TID 0000.0001) // End MONITOR dynamic field statistics
(PID.TID 0000.0001) // =======================================================
(PID.TID 0000.0001) // =======================================================
(PID.TID 0000.0001) // Begin OBCS MONITOR field statistics
(PID.TID 0000.0001) // =======================================================
(PID.TID 0000.0001) %MON obc_N_vVel_max               =   1.4972129104549E-05
(PID.TID 0000.0001) %MON obc_N_vVel_min               =   1.4972129104549E-05
(PID.TID 0000.0001) %MON obc_N_vVel_mean              =   1.4972129104549E-05
(PID.TID 0000.0001) %MON obc_N_vVel_sd                =  -1.5251142543946E-23
(PID.TID 0000.0001) %MON obc_N_vVel_Int               =   9.8816052090026E+02
(PID.TID 0000.0001) // =======================================================
(PID.TID 0000.0001) // End OBCS MONITOR field statistics
(PID.TID 0000.0001) // =======================================================
 cg2d: Sum(rhs),rhsMax =   4.50748479790347E+00  2.99957292564342E+02
(PID.TID 0000.0001)      cg2d_init_res =   9.78097046441350E-06
(PID.TID 0000.0001)      cg2d_iters(min,last) =      -1      84
(PID.TID 0000.0001)      cg2d_last_res =   8.96039270696582E-12
(PID.TID 0000.0001) // =======================================================
(PID.TID 0000.0001) // Begin MONITOR dynamic field statistics
(PID.TID 0000.0001) // =======================================================
(PID.TID 0000.0001) %MON time_tsnumber                =                  1355
(PID.TID 0000.0001) %MON time_secondsf                =   1.3550000000000E+05
(PID.TID 0000.0001) %MON dynstat_eta_max              =   5.7989907315422E+00
(PID.TID 0000.0001) %MON dynstat_eta_min              =  -1.4190449126257E+01
(PID.TID 0000.0001) %MON dynstat_eta_mean             =  -2.5038017338038E+00
(PID.TID 0000.0001) %MON dynstat_eta_sd               =   4.9499615545706E+00
(PID.TID 0000.0001) %MON dynstat_eta_del2             =   2.0716314519395E-01
(PID.TID 0000.0001) %MON dynstat_uvel_max             =   1.0508278954873E-02
(PID.TID 0000.0001) %MON dynstat_uvel_min             =  -4.8292419170991E-02
(PID.TID 0000.0001) %MON dynstat_uvel_mean            =  -1.0932458193298E-07
(PID.TID 0000.0001) %MON dynstat_uvel_sd              =   1.3898224809741E-03
(PID.TID 0000.0001) %MON dynstat_uvel_del2            =   2.0797136946993E-06
(PID.TID 0000.0001) %MON dynstat_vvel_max             =   3.3028276471171E-02
(PID.TID 0000.0001) %MON dynstat_vvel_min             =  -1.6162221177234E-02
(PID.TID 0000.0001) %MON dynstat_vvel_mean            =   1.5295519884288E-05
(PID.TID 0000.0001) %MON dynstat_vvel_sd              =   7.5151063592961E-04
(PID.TID 0000.0001) %MON dynstat_vvel_del2            =   1.5515550623358E-06
(PID.TID 0000.0001) %MON dynstat_wvel_max             =   1.7858508775761E-03
(PID.TID 0000.0001) %MON dynstat_wvel_min             =  -1.7222981457333E-03
(PID.TID 0000.0001) %MON dynstat_wvel_mean            =   7.4309045449770E-09
(PID.TID 0000.0001) %MON dynstat_wvel_sd              =   2.8510993104720E-05
(PID.TID 0000.0001) %MON dynstat_wvel_del2            =   1.1578298372212E-07
(PID.TID 0000.0001) %MON dynstat_theta_max            =   1.2000000000000E+00
(PID.TID 0000.0001) %MON dynstat_theta_min            =  -1.0000000000000E+00
(PID.TID 0000.0001) %MON dynstat_theta_mean           =   5.6840377832596E-01
(PID.TID 0000.0001) %MON dynstat_theta_sd             =   8.6820672889622E-01
(PID.TID 0000.0001) %MON dynstat_theta_del2           =   4.9400774531759E-06
(PID.TID 0000.0001) %MON dynstat_salt_max             =   3.4700000000000E+01
(PID.TID 0000.0001) %MON dynstat_salt_min             =   3.4000000000000E+01
(PID.TID 0000.0001) %MON dynstat_salt_mean            =   3.4498975598808E+01
(PID.TID 0000.0001) %MON dynstat_salt_sd              =   2.7622285478095E-01
(PID.TID 0000.0001) %MON dynstat_salt_del2            =   1.9564194986212E-06
(PID.TID 0000.0001) %MON advcfl_uvel_max              =   4.8292419170991E-03
(PID.TID 0000.0001) %MON advcfl_vvel_max              =   3.3028276471171E-03
(PID.TID 0000.0001) %MON advcfl_wvel_max              =   8.9292543878804E-03
(PID.TID 0000.0001) %MON advcfl_W_hf_max              =   8.9292543878804E-03
(PID.TID 0000.0001) %MON pe_b_mean                    =  -8.2963805086876E-01
(PID.TID 0000.0001) %MON ke_max                       =   9.4409594267992E-04
(PID.TID 0000.0001) %MON ke_mean                      =   1.2291447163549E-06
(PID.TID 0000.0001) %MON ke_vol                       =   4.2724674455796E+12
(PID.TID 0000.0001) // =======================================================
(PID.TID 0000.0001) // End MONITOR dynamic field statistics
(PID.TID 0000.0001) // =======================================================
(PID.TID 0000.0001) // =======================================================
(PID.TID 0000.0001) // Begin OBCS MONITOR field statistics
(PID.TID 0000.0001) // =======================================================
(PID.TID 0000.0001) %MON obc_N_vVel_max               =   1.4980637327859E-05
(PID.TID 0000.0001) %MON obc_N_vVel_min               =   1.4980637327859E-05
(PID.TID 0000.0001) %MON obc_N_vVel_mean              =   1.4980637327859E-05
(PID.TID 0000.0001) %MON obc_N_vVel_sd                =   4.1021891212651E-12
(PID.TID 0000.0001) %MON obc_N_vVel_Int               =   9.8872206363866E+02
(PID.TID 0000.0001) // =======================================================
(PID.TID 0000.0001) // End OBCS MONITOR field statistics
(PID.TID 0000.0001) // =======================================================
 cg2d: Sum(rhs),rhsMax =   4.50749205278463E+00  2.99957370378261E+02
(PID.TID 0000.0001)      cg2d_init_res =   9.78887213580100E-06
(PID.TID 0000.0001)      cg2d_iters(min,last) =      -1      84
(PID.TID 0000.0001)      cg2d_last_res =   8.96253044746389E-12
(PID.TID 0000.0001) // =======================================================
(PID.TID 0000.0001) // Begin MONITOR dynamic field statistics
(PID.TID 0000.0001) // =======================================================
(PID.TID 0000.0001) %MON time_tsnumber                =                  1356
(PID.TID 0000.0001) %MON time_secondsf                =   1.3560000000000E+05
(PID.TID 0000.0001) %MON dynstat_eta_max              =   5.7990127899414E+00
(PID.TID 0000.0001) %MON dynstat_eta_min              =  -1.4190479014851E+01
(PID.TID 0000.0001) %MON dynstat_eta_mean             =  -2.5038064132485E+00
(PID.TID 0000.0001) %MON dynstat_eta_sd               =   4.9499636184839E+00
(PID.TID 0000.0001) %MON dynstat_eta_del2             =   2.0716319360499E-01
(PID.TID 0000.0001) %MON dynstat_uvel_max             =   1.0533211231634E-02
(PID.TID 0000.0001) %MON dynstat_uvel_min             =  -4.8399906507386E-02
(PID.TID 0000.0001) %MON dynstat_uvel_mean            =  -1.0916904730210E-07
(PID.TID 0000.0001) %MON dynstat_uvel_sd              =   1.3929392295577E-03
(PID.TID 0000.0001) %MON dynstat_uvel_del2            =   2.0847601019851E-06
(PID.TID 0000.0001) %MON dynstat_vvel_max             =   3.3078850378890E-02
(PID.TID 0000.0001) %MON dynstat_vvel_min             =  -1.6202168134605E-02
(PID.TID 0000.0001) %MON dynstat_vvel_mean            =   1.5301269809343E-05
(PID.TID 0000.0001) %MON dynstat_vvel_sd              =   7.5297997787695E-04
(PID.TID 0000.0001) %MON dynstat_vvel_del2            =   1.5546471199711E-06
(PID.TID 0000.0001) %MON dynstat_wvel_max             =   1.7890312023531E-03
(PID.TID 0000.0001) %MON dynstat_wvel_min             =  -1.7254715590810E-03
(PID.TID 0000.0001) %MON dynstat_wvel_mean            =   7.4199947131447E-09
(PID.TID 0000.0001) %MON dynstat_wvel_sd              =   2.8573200309091E-05
(PID.TID 0000.0001) %MON dynstat_wvel_del2            =   1.1594907442146E-07
(PID.TID 0000.0001) %MON dynstat_theta_max            =   1.2000000000000E+00
(PID.TID 0000.0001) %MON dynstat_theta_min            =  -1.0000000000000E+00
(PID.TID 0000.0001) %MON dynstat_theta_mean           =   5.6840235133659E-01
(PID.TID 0000.0001) %MON dynstat_theta_sd             =   8.6820597072489E-01
(PID.TID 0000.0001) %MON dynstat_theta_del2           =   4.9495757923028E-06
(PID.TID 0000.0001) %MON dynstat_salt_max             =   3.4700000000000E+01
(PID.TID 0000.0001) %MON dynstat_salt_min             =   3.4000000000000E+01
(PID.TID 0000.0001) %MON dynstat_salt_mean            =   3.4498975027434E+01
(PID.TID 0000.0001) %MON dynstat_salt_sd              =   2.7622256407179E-01
(PID.TID 0000.0001) %MON dynstat_salt_del2            =   1.9602028727749E-06
(PID.TID 0000.0001) %MON advcfl_uvel_max              =   4.8399906507386E-03
(PID.TID 0000.0001) %MON advcfl_vvel_max              =   3.3078850378890E-03
(PID.TID 0000.0001) %MON advcfl_wvel_max              =   8.9451560117656E-03
(PID.TID 0000.0001) %MON advcfl_W_hf_max              =   8.9451560117656E-03
(PID.TID 0000.0001) %MON pe_b_mean                    =  -8.2963879384955E-01
(PID.TID 0000.0001) %MON ke_max                       =   9.4870966914619E-04
(PID.TID 0000.0001) %MON ke_mean                      =   1.2345006826215E-06
(PID.TID 0000.0001) %MON ke_vol                       =   4.2724674177012E+12
(PID.TID 0000.0001) // =======================================================
(PID.TID 0000.0001) // End MONITOR dynamic field statistics
(PID.TID 0000.0001) // =======================================================
(PID.TID 0000.0001) // =======================================================
(PID.TID 0000.0001) // Begin OBCS MONITOR field statistics
(PID.TID 0000.0001) // =======================================================
(PID.TID 0000.0001) %MON obc_N_vVel_max               =   1.4987085461775E-05
(PID.TID 0000.0001) %MON obc_N_vVel_min               =   1.4987085461775E-05
(PID.TID 0000.0001) %MON obc_N_vVel_mean              =   1.4987085461775E-05
(PID.TID 0000.0001) %MON obc_N_vVel_sd                =   2.7661201467246E-12
(PID.TID 0000.0001) %MON obc_N_vVel_Int               =   9.8914764047712E+02
(PID.TID 0000.0001) // =======================================================
(PID.TID 0000.0001) // End OBCS MONITOR field statistics
(PID.TID 0000.0001) // =======================================================
 cg2d: Sum(rhs),rhsMax =   4.50749928071076E+00  2.99957448031618E+02
(PID.TID 0000.0001)      cg2d_init_res =   9.79647767469246E-06
(PID.TID 0000.0001)      cg2d_iters(min,last) =      -1      84
(PID.TID 0000.0001)      cg2d_last_res =   8.96437627025463E-12
(PID.TID 0000.0001) // =======================================================
(PID.TID 0000.0001) // Begin MONITOR dynamic field statistics
(PID.TID 0000.0001) // =======================================================
(PID.TID 0000.0001) %MON time_tsnumber                =                  1357
(PID.TID 0000.0001) %MON time_secondsf                =   1.3570000000000E+05
(PID.TID 0000.0001) %MON dynstat_eta_max              =   5.7990349345215E+00
(PID.TID 0000.0001) %MON dynstat_eta_min              =  -1.4190508899965E+01
(PID.TID 0000.0001) %MON dynstat_eta_mean             =  -2.5038110763821E+00
(PID.TID 0000.0001) %MON dynstat_eta_sd               =   4.9499656758867E+00
(PID.TID 0000.0001) %MON dynstat_eta_del2             =   2.0716324208719E-01
(PID.TID 0000.0001) %MON dynstat_uvel_max             =   1.0558188057722E-02
(PID.TID 0000.0001) %MON dynstat_uvel_min             =  -4.8507523522873E-02
(PID.TID 0000.0001) %MON dynstat_uvel_mean            =  -1.0900978454142E-07
(PID.TID 0000.0001) %MON dynstat_uvel_sd              =   1.3960621430376E-03
(PID.TID 0000.0001) %MON dynstat_uvel_del2            =   2.0898188900449E-06
(PID.TID 0000.0001) %MON dynstat_vvel_max             =   3.3129411659607E-02
(PID.TID 0000.0001) %MON dynstat_vvel_min             =  -1.6242200846897E-02
(PID.TID 0000.0001) %MON dynstat_vvel_mean            =   1.5304502731069E-05
(PID.TID 0000.0001) %MON dynstat_vvel_sd              =   7.5445231282473E-04
(PID.TID 0000.0001) %MON dynstat_vvel_del2            =   1.5577461291437E-06
(PID.TID 0000.0001) %MON dynstat_wvel_max             =   1.7922119641727E-03
(PID.TID 0000.0001) %MON dynstat_wvel_min             =  -1.7286463968698E-03
(PID.TID 0000.0001) %MON dynstat_wvel_mean            =   7.4054711090703E-09
(PID.TID 0000.0001) %MON dynstat_wvel_sd              =   2.8637043511839E-05
(PID.TID 0000.0001) %MON dynstat_wvel_del2            =   1.1612347813517E-07
(PID.TID 0000.0001) %MON dynstat_theta_max            =   1.2000000000000E+00
(PID.TID 0000.0001) %MON dynstat_theta_min            =  -1.0000000000000E+00
(PID.TID 0000.0001) %MON dynstat_theta_mean           =   5.6840092173856E-01
(PID.TID 0000.0001) %MON dynstat_theta_sd             =   8.6820521140800E-01
(PID.TID 0000.0001) %MON dynstat_theta_del2           =   4.9590888399952E-06
(PID.TID 0000.0001) %MON dynstat_salt_max             =   3.4700000000000E+01
(PID.TID 0000.0001) %MON dynstat_salt_min             =   3.4000000000000E+01
(PID.TID 0000.0001) %MON dynstat_salt_mean            =   3.4498974455022E+01
(PID.TID 0000.0001) %MON dynstat_salt_sd              =   2.7622227293126E-01
(PID.TID 0000.0001) %MON dynstat_salt_del2            =   1.9639918390163E-06
(PID.TID 0000.0001) %MON advcfl_uvel_max              =   4.8507523522873E-03
(PID.TID 0000.0001) %MON advcfl_vvel_max              =   3.3129411659607E-03
(PID.TID 0000.0001) %MON advcfl_wvel_max              =   8.9610598208636E-03
(PID.TID 0000.0001) %MON advcfl_W_hf_max              =   8.9610598208636E-03
(PID.TID 0000.0001) %MON pe_b_mean                    =  -8.2963953009535E-01
(PID.TID 0000.0001) %MON ke_max                       =   9.5334127999929E-04
(PID.TID 0000.0001) %MON ke_mean                      =   1.2398789850229E-06
(PID.TID 0000.0001) %MON ke_vol                       =   4.2724673899053E+12
(PID.TID 0000.0001) // =======================================================
(PID.TID 0000.0001) // End MONITOR dynamic field statistics
(PID.TID 0000.0001) // =======================================================
(PID.TID 0000.0001) // =======================================================
(PID.TID 0000.0001) // Begin OBCS MONITOR field statistics
(PID.TID 0000.0001) // =======================================================
(PID.TID 0000.0001) %MON obc_N_vVel_max               =   1.4991377670032E-05
(PID.TID 0000.0001) %MON obc_N_vVel_min               =   1.4991377670032E-05
(PID.TID 0000.0001) %MON obc_N_vVel_mean              =   1.4991377670032E-05
(PID.TID 0000.0001) %MON obc_N_vVel_sd                =   2.9949523814865E-12
(PID.TID 0000.0001) %MON obc_N_vVel_Int               =   9.8943092622209E+02
(PID.TID 0000.0001) // =======================================================
(PID.TID 0000.0001) // End OBCS MONITOR field statistics
(PID.TID 0000.0001) // =======================================================
 cg2d: Sum(rhs),rhsMax =   4.50750647769954E+00  2.99957525491001E+02
(PID.TID 0000.0001)      cg2d_init_res =   9.80333395644083E-06
(PID.TID 0000.0001)      cg2d_iters(min,last) =      -1      84
(PID.TID 0000.0001)      cg2d_last_res =   8.96594093690845E-12
(PID.TID 0000.0001) // =======================================================
(PID.TID 0000.0001) // Begin MONITOR dynamic field statistics
(PID.TID 0000.0001) // =======================================================
(PID.TID 0000.0001) %MON time_tsnumber                =                  1358
(PID.TID 0000.0001) %MON time_secondsf                =   1.3580000000000E+05
(PID.TID 0000.0001) %MON dynstat_eta_max              =   5.7990571703274E+00
(PID.TID 0000.0001) %MON dynstat_eta_min              =  -1.4190538778562E+01
(PID.TID 0000.0001) %MON dynstat_eta_mean             =  -2.5038157207137E+00
(PID.TID 0000.0001) %MON dynstat_eta_sd               =   4.9499677259432E+00
(PID.TID 0000.0001) %MON dynstat_eta_del2             =   2.0716329063984E-01
(PID.TID 0000.0001) %MON dynstat_uvel_max             =   1.0583209470855E-02
(PID.TID 0000.0001) %MON dynstat_uvel_min             =  -4.8615269932597E-02
(PID.TID 0000.0001) %MON dynstat_uvel_mean            =  -1.0884918342494E-07
(PID.TID 0000.0001) %MON dynstat_uvel_sd              =   1.3991912311174E-03
(PID.TID 0000.0001) %MON dynstat_uvel_del2            =   2.0948900844114E-06
(PID.TID 0000.0001) %MON dynstat_vvel_max             =   3.3179959854126E-02
(PID.TID 0000.0001) %MON dynstat_vvel_min             =  -1.6282319431667E-02
(PID.TID 0000.0001) %MON dynstat_vvel_mean            =   1.5305190603936E-05
(PID.TID 0000.0001) %MON dynstat_vvel_sd              =   7.5592750400966E-04
(PID.TID 0000.0001) %MON dynstat_vvel_del2            =   1.5608526304231E-06
(PID.TID 0000.0001) %MON dynstat_wvel_max             =   1.7953931456177E-03
(PID.TID 0000.0001) %MON dynstat_wvel_min             =  -1.7318226425461E-03
(PID.TID 0000.0001) %MON dynstat_wvel_mean            =   7.3876699783939E-09
(PID.TID 0000.0001) %MON dynstat_wvel_sd              =   2.8702674576110E-05
(PID.TID 0000.0001) %MON dynstat_wvel_del2            =   1.1630839082660E-07
(PID.TID 0000.0001) %MON dynstat_theta_max            =   1.2000000000000E+00
(PID.TID 0000.0001) %MON dynstat_theta_min            =  -1.0000000000000E+00
(PID.TID 0000.0001) %MON dynstat_theta_mean           =   5.6839948952296E-01
(PID.TID 0000.0001) %MON dynstat_theta_sd             =   8.6820445094444E-01
(PID.TID 0000.0001) %MON dynstat_theta_del2           =   4.9686151092352E-06
(PID.TID 0000.0001) %MON dynstat_salt_max             =   3.4700000000000E+01
(PID.TID 0000.0001) %MON dynstat_salt_min             =   3.4000000000000E+01
(PID.TID 0000.0001) %MON dynstat_salt_mean            =   3.4498973881570E+01
(PID.TID 0000.0001) %MON dynstat_salt_sd              =   2.7622198135899E-01
(PID.TID 0000.0001) %MON dynstat_salt_del2            =   1.9677864381814E-06
(PID.TID 0000.0001) %MON advcfl_uvel_max              =   4.8615269932597E-03
(PID.TID 0000.0001) %MON advcfl_vvel_max              =   3.3179959854126E-03
(PID.TID 0000.0001) %MON advcfl_wvel_max              =   8.9769657280884E-03
(PID.TID 0000.0001) %MON advcfl_W_hf_max              =   8.9769657280884E-03
(PID.TID 0000.0001) %MON pe_b_mean                    =  -8.2964025894857E-01
(PID.TID 0000.0001) %MON ke_max                       =   9.5799081016765E-04
(PID.TID 0000.0001) %MON ke_mean                      =   1.2452796028793E-06
(PID.TID 0000.0001) %MON ke_vol                       =   4.2724673622063E+12
(PID.TID 0000.0001) // =======================================================
(PID.TID 0000.0001) // End MONITOR dynamic field statistics
(PID.TID 0000.0001) // =======================================================
(PID.TID 0000.0001) // =======================================================
(PID.TID 0000.0001) // Begin OBCS MONITOR field statistics
(PID.TID 0000.0001) // =======================================================
(PID.TID 0000.0001) %MON obc_N_vVel_max               =   1.4993460399505E-05
(PID.TID 0000.0001) %MON obc_N_vVel_min               =   1.4993460399504E-05
(PID.TID 0000.0001) %MON obc_N_vVel_mean              =   1.4993460399504E-05
(PID.TID 0000.0001) %MON obc_N_vVel_sd                =   4.7585784924323E-12
(PID.TID 0000.0001) %MON obc_N_vVel_Int               =   9.8956838636728E+02
(PID.TID 0000.0001) // =======================================================
(PID.TID 0000.0001) // End OBCS MONITOR field statistics
(PID.TID 0000.0001) // =======================================================
 cg2d: Sum(rhs),rhsMax =   4.50751363969015E+00  2.99957602726798E+02
(PID.TID 0000.0001)      cg2d_init_res =   9.80961855519066E-06
(PID.TID 0000.0001)      cg2d_iters(min,last) =      -1      84
(PID.TID 0000.0001)      cg2d_last_res =   8.96746488307963E-12
(PID.TID 0000.0001) // =======================================================
(PID.TID 0000.0001) // Begin MONITOR dynamic field statistics
(PID.TID 0000.0001) // =======================================================
(PID.TID 0000.0001) %MON time_tsnumber                =                  1359
(PID.TID 0000.0001) %MON time_secondsf                =   1.3590000000000E+05
(PID.TID 0000.0001) %MON dynstat_eta_max              =   5.7990795023170E+00
(PID.TID 0000.0001) %MON dynstat_eta_min              =  -1.4190568647694E+01
(PID.TID 0000.0001) %MON dynstat_eta_mean             =  -2.5038203437404E+00
(PID.TID 0000.0001) %MON dynstat_eta_sd               =   4.9499697678600E+00
(PID.TID 0000.0001) %MON dynstat_eta_del2             =   2.0716333926278E-01
(PID.TID 0000.0001) %MON dynstat_uvel_max             =   1.0608275506282E-02
(PID.TID 0000.0001) %MON dynstat_uvel_min             =  -4.8723145449610E-02
(PID.TID 0000.0001) %MON dynstat_uvel_mean            =  -1.0868966542308E-07
(PID.TID 0000.0001) %MON dynstat_uvel_sd              =   1.4023265033614E-03
(PID.TID 0000.0001) %MON dynstat_uvel_del2            =   2.0999737124154E-06
(PID.TID 0000.0001) %MON dynstat_vvel_max             =   3.3230494742519E-02
(PID.TID 0000.0001) %MON dynstat_vvel_min             =  -1.6322523993589E-02
(PID.TID 0000.0001) %MON dynstat_vvel_mean            =   1.5303354711402E-05
(PID.TID 0000.0001) %MON dynstat_vvel_sd              =   7.5740539780451E-04
(PID.TID 0000.0001) %MON dynstat_vvel_del2            =   1.5639669904179E-06
(PID.TID 0000.0001) %MON dynstat_wvel_max             =   1.7985747241125E-03
(PID.TID 0000.0001) %MON dynstat_wvel_min             =  -1.7350002803903E-03
(PID.TID 0000.0001) %MON dynstat_wvel_mean            =   7.3669887761346E-09
(PID.TID 0000.0001) %MON dynstat_wvel_sd              =   2.8770129023039E-05
(PID.TID 0000.0001) %MON dynstat_wvel_del2            =   1.1650529383198E-07
(PID.TID 0000.0001) %MON dynstat_theta_max            =   1.2000000000000E+00
(PID.TID 0000.0001) %MON dynstat_theta_min            =  -1.0000000000000E+00
(PID.TID 0000.0001) %MON dynstat_theta_mean           =   5.6839805468105E-01
(PID.TID 0000.0001) %MON dynstat_theta_sd             =   8.6820368933261E-01
(PID.TID 0000.0001) %MON dynstat_theta_del2           =   4.9781546531404E-06
(PID.TID 0000.0001) %MON dynstat_salt_max             =   3.4700000000000E+01
(PID.TID 0000.0001) %MON dynstat_salt_min             =   3.4000000000000E+01
(PID.TID 0000.0001) %MON dynstat_salt_mean            =   3.4498973307075E+01
(PID.TID 0000.0001) %MON dynstat_salt_sd              =   2.7622168935453E-01
(PID.TID 0000.0001) %MON dynstat_salt_del2            =   1.9715866880223E-06
(PID.TID 0000.0001) %MON advcfl_uvel_max              =   4.8723145449610E-03
(PID.TID 0000.0001) %MON advcfl_vvel_max              =   3.3230494742519E-03
(PID.TID 0000.0001) %MON advcfl_wvel_max              =   8.9928736205627E-03
(PID.TID 0000.0001) %MON advcfl_W_hf_max              =   8.9928736205627E-03
(PID.TID 0000.0001) %MON pe_b_mean                    =  -8.2964097976047E-01
(PID.TID 0000.0001) %MON ke_max                       =   9.6265829461519E-04
(PID.TID 0000.0001) %MON ke_mean                      =   1.2507025027651E-06
(PID.TID 0000.0001) %MON ke_vol                       =   4.2724673346190E+12
(PID.TID 0000.0001) // =======================================================
(PID.TID 0000.0001) // End MONITOR dynamic field statistics
(PID.TID 0000.0001) // =======================================================
(PID.TID 0000.0001) // =======================================================
(PID.TID 0000.0001) // Begin OBCS MONITOR field statistics
(PID.TID 0000.0001) // =======================================================
(PID.TID 0000.0001) %MON obc_N_vVel_max               =   1.4993323087814E-05
(PID.TID 0000.0001) %MON obc_N_vVel_min               =   1.4993323087814E-05
(PID.TID 0000.0001) %MON obc_N_vVel_mean              =   1.4993323087814E-05
(PID.TID 0000.0001) %MON obc_N_vVel_sd                =   2.5114243310753E-12
(PID.TID 0000.0001) %MON obc_N_vVel_Int               =   9.8955932379572E+02
(PID.TID 0000.0001) // =======================================================
(PID.TID 0000.0001) // End OBCS MONITOR field statistics
(PID.TID 0000.0001) // =======================================================
 cg2d: Sum(rhs),rhsMax =   4.50752076262283E+00  2.99957679713682E+02
(PID.TID 0000.0001)      cg2d_init_res =   9.81546260608328E-06
(PID.TID 0000.0001)      cg2d_iters(min,last) =      -1      84
(PID.TID 0000.0001)      cg2d_last_res =   8.96909333163123E-12
(PID.TID 0000.0001) // =======================================================
(PID.TID 0000.0001) // Begin MONITOR dynamic field statistics
(PID.TID 0000.0001) // =======================================================
(PID.TID 0000.0001) %MON time_tsnumber                =                  1360
(PID.TID 0000.0001) %MON time_secondsf                =   1.3600000000000E+05
(PID.TID 0000.0001) %MON dynstat_eta_max              =   5.7991019352911E+00
(PID.TID 0000.0001) %MON dynstat_eta_min              =  -1.4190598504577E+01
(PID.TID 0000.0001) %MON dynstat_eta_mean             =  -2.5038249429955E+00
(PID.TID 0000.0001) %MON dynstat_eta_sd               =   4.9499718008929E+00
(PID.TID 0000.0001) %MON dynstat_eta_del2             =   2.0716338795578E-01
(PID.TID 0000.0001) %MON dynstat_uvel_max             =   1.0633386196440E-02
(PID.TID 0000.0001) %MON dynstat_uvel_min             =  -4.8831149784711E-02
(PID.TID 0000.0001) %MON dynstat_uvel_mean            =  -1.0853362556360E-07
(PID.TID 0000.0001) %MON dynstat_uvel_sd              =   1.4054679690877E-03
(PID.TID 0000.0001) %MON dynstat_uvel_del2            =   2.1050698005487E-06
(PID.TID 0000.0001) %MON dynstat_vvel_max             =   3.3281016106839E-02
(PID.TID 0000.0001) %MON dynstat_vvel_min             =  -1.6362814626225E-02
(PID.TID 0000.0001) %MON dynstat_vvel_mean            =   1.5299064860273E-05
(PID.TID 0000.0001) %MON dynstat_vvel_sd              =   7.5888582348885E-04
(PID.TID 0000.0001) %MON dynstat_vvel_del2            =   1.5670893763066E-06
(PID.TID 0000.0001) %MON dynstat_wvel_max             =   1.8017566802376E-03
(PID.TID 0000.0001) %MON dynstat_wvel_min             =  -1.7381792950878E-03
(PID.TID 0000.0001) %MON dynstat_wvel_mean            =   7.3438783605255E-09
(PID.TID 0000.0001) %MON dynstat_wvel_sd              =   2.8839310250348E-05
(PID.TID 0000.0001) %MON dynstat_wvel_del2            =   1.1671483612449E-07
(PID.TID 0000.0001) %MON dynstat_theta_max            =   1.2000000000000E+00
(PID.TID 0000.0001) %MON dynstat_theta_min            =  -1.0000000000000E+00
(PID.TID 0000.0001) %MON dynstat_theta_mean           =   5.6839661720437E-01
(PID.TID 0000.0001) %MON dynstat_theta_sd             =   8.6820292656967E-01
(PID.TID 0000.0001) %MON dynstat_theta_del2           =   4.9877081189470E-06
(PID.TID 0000.0001) %MON dynstat_salt_max             =   3.4700000000000E+01
(PID.TID 0000.0001) %MON dynstat_salt_min             =   3.4000000000000E+01
(PID.TID 0000.0001) %MON dynstat_salt_mean            =   3.4498972731532E+01
(PID.TID 0000.0001) %MON dynstat_salt_sd              =   2.7622139691673E-01
(PID.TID 0000.0001) %MON dynstat_salt_del2            =   1.9753922306917E-06
(PID.TID 0000.0001) %MON advcfl_uvel_max              =   4.8831149784711E-03
(PID.TID 0000.0001) %MON advcfl_vvel_max              =   3.3281016106839E-03
(PID.TID 0000.0001) %MON advcfl_wvel_max              =   9.0087834011882E-03
(PID.TID 0000.0001) %MON advcfl_W_hf_max              =   9.0087834011882E-03
(PID.TID 0000.0001) %MON pe_b_mean                    =  -8.2964169190353E-01
(PID.TID 0000.0001) %MON ke_max                       =   9.6734376832479E-04
(PID.TID 0000.0001) %MON ke_mean                      =   1.2561476380457E-06
(PID.TID 0000.0001) %MON ke_vol                       =   4.2724673071582E+12
(PID.TID 0000.0001) // =======================================================
(PID.TID 0000.0001) // End MONITOR dynamic field statistics
(PID.TID 0000.0001) // =======================================================
(PID.TID 0000.0001) // =======================================================
(PID.TID 0000.0001) // Begin OBCS MONITOR field statistics
(PID.TID 0000.0001) // =======================================================
(PID.TID 0000.0001) %MON obc_N_vVel_max               =   1.4990998089545E-05
(PID.TID 0000.0001) %MON obc_N_vVel_min               =   1.4990998089545E-05
(PID.TID 0000.0001) %MON obc_N_vVel_mean              =   1.4990998089545E-05
(PID.TID 0000.0001) %MON obc_N_vVel_sd                =   3.3839742323237E-12
(PID.TID 0000.0001) %MON obc_N_vVel_Int               =   9.8940587390994E+02
(PID.TID 0000.0001) // =======================================================
(PID.TID 0000.0001) // End OBCS MONITOR field statistics
(PID.TID 0000.0001) // =======================================================
 cg2d: Sum(rhs),rhsMax =   4.50752784251586E+00  2.99957756431011E+02
(PID.TID 0000.0001)      cg2d_init_res =   9.82091433000626E-06
(PID.TID 0000.0001)      cg2d_iters(min,last) =      -1      84
(PID.TID 0000.0001)      cg2d_last_res =   8.97085767630010E-12
(PID.TID 0000.0001) // =======================================================
(PID.TID 0000.0001) // Begin MONITOR dynamic field statistics
(PID.TID 0000.0001) // =======================================================
(PID.TID 0000.0001) %MON time_tsnumber                =                  1361
(PID.TID 0000.0001) %MON time_secondsf                =   1.3610000000000E+05
(PID.TID 0000.0001) %MON dynstat_eta_max              =   5.7991244738130E+00
(PID.TID 0000.0001) %MON dynstat_eta_min              =  -1.4190628346622E+01
(PID.TID 0000.0001) %MON dynstat_eta_mean             =  -2.5038295160951E+00
(PID.TID 0000.0001) %MON dynstat_eta_sd               =   4.9499738243540E+00
(PID.TID 0000.0001) %MON dynstat_eta_del2             =   2.0716343671788E-01
(PID.TID 0000.0001) %MON dynstat_uvel_max             =   1.0658541570846E-02
(PID.TID 0000.0001) %MON dynstat_uvel_min             =  -4.8939282646164E-02
(PID.TID 0000.0001) %MON dynstat_uvel_mean            =  -1.0838340654295E-07
(PID.TID 0000.0001) %MON dynstat_uvel_sd              =   1.4086156374171E-03
(PID.TID 0000.0001) %MON dynstat_uvel_del2            =   2.1101783720601E-06
(PID.TID 0000.0001) %MON dynstat_vvel_max             =   3.3331523727685E-02
(PID.TID 0000.0001) %MON dynstat_vvel_min             =  -1.6403191412287E-02
(PID.TID 0000.0001) %MON dynstat_vvel_mean            =   1.5292437696827E-05
(PID.TID 0000.0001) %MON dynstat_vvel_sd              =   7.6036859457013E-04
(PID.TID 0000.0001) %MON dynstat_vvel_del2            =   1.5702197531131E-06
(PID.TID 0000.0001) %MON dynstat_wvel_max             =   1.8049389945855E-03
(PID.TID 0000.0001) %MON dynstat_wvel_min             =  -1.7413596717082E-03
(PID.TID 0000.0001) %MON dynstat_wvel_mean            =   7.3188334198375E-09
(PID.TID 0000.0001) %MON dynstat_wvel_sd              =   2.8909983747799E-05
(PID.TID 0000.0001) %MON dynstat_wvel_del2            =   1.1693678499853E-07
(PID.TID 0000.0001) %MON dynstat_theta_max            =   1.2000000000000E+00
(PID.TID 0000.0001) %MON dynstat_theta_min            =  -1.0000000000000E+00
(PID.TID 0000.0001) %MON dynstat_theta_mean           =   5.6839517708466E-01
(PID.TID 0000.0001) %MON dynstat_theta_sd             =   8.6820216265003E-01
(PID.TID 0000.0001) %MON dynstat_theta_del2           =   4.9972761541089E-06
(PID.TID 0000.0001) %MON dynstat_salt_max             =   3.4700000000000E+01
(PID.TID 0000.0001) %MON dynstat_salt_min             =   3.4000000000000E+01
(PID.TID 0000.0001) %MON dynstat_salt_mean            =   3.4498972154940E+01
(PID.TID 0000.0001) %MON dynstat_salt_sd              =   2.7622110404425E-01
(PID.TID 0000.0001) %MON dynstat_salt_del2            =   1.9792036909840E-06
(PID.TID 0000.0001) %MON advcfl_uvel_max              =   4.8939282646164E-03
(PID.TID 0000.0001) %MON advcfl_vvel_max              =   3.3331523727685E-03
(PID.TID 0000.0001) %MON advcfl_wvel_max              =   9.0246949729273E-03
(PID.TID 0000.0001) %MON advcfl_W_hf_max              =   9.0246949729273E-03
(PID.TID 0000.0001) %MON pe_b_mean                    =  -8.2964239478300E-01
(PID.TID 0000.0001) %MON ke_max                       =   9.7204726629134E-04
(PID.TID 0000.0001) %MON ke_mean                      =   1.2616149497873E-06
(PID.TID 0000.0001) %MON ke_vol                       =   4.2724672798386E+12
(PID.TID 0000.0001) // =======================================================
(PID.TID 0000.0001) // End MONITOR dynamic field statistics
(PID.TID 0000.0001) // =======================================================
(PID.TID 0000.0001) // =======================================================
(PID.TID 0000.0001) // Begin OBCS MONITOR field statistics
(PID.TID 0000.0001) // =======================================================
(PID.TID 0000.0001) %MON obc_N_vVel_max               =   1.4986559699568E-05
(PID.TID 0000.0001) %MON obc_N_vVel_min               =   1.4986559699568E-05
(PID.TID 0000.0001) %MON obc_N_vVel_mean              =   1.4986559699568E-05
(PID.TID 0000.0001) %MON obc_N_vVel_sd                =  -1.0184661292059E-23
(PID.TID 0000.0001) %MON obc_N_vVel_Int               =   9.8911294017150E+02
(PID.TID 0000.0001) // =======================================================
(PID.TID 0000.0001) // End OBCS MONITOR field statistics
(PID.TID 0000.0001) // =======================================================
 cg2d: Sum(rhs),rhsMax =   4.50753487554162E+00  2.99957832863119E+02
(PID.TID 0000.0001)      cg2d_init_res =   9.82629552272973E-06
(PID.TID 0000.0001)      cg2d_iters(min,last) =      -1      84
(PID.TID 0000.0001)      cg2d_last_res =   8.97320413825391E-12
(PID.TID 0000.0001) // =======================================================
(PID.TID 0000.0001) // Begin MONITOR dynamic field statistics
(PID.TID 0000.0001) // =======================================================
(PID.TID 0000.0001) %MON time_tsnumber                =                  1362
(PID.TID 0000.0001) %MON time_secondsf                =   1.3620000000000E+05
(PID.TID 0000.0001) %MON dynstat_eta_max              =   5.7991471221102E+00
(PID.TID 0000.0001) %MON dynstat_eta_min              =  -1.4190658171491E+01
(PID.TID 0000.0001) %MON dynstat_eta_mean             =  -2.5038340607822E+00
(PID.TID 0000.0001) %MON dynstat_eta_sd               =   4.9499758376454E+00
(PID.TID 0000.0001) %MON dynstat_eta_del2             =   2.0716348554959E-01
(PID.TID 0000.0001) %MON dynstat_uvel_max             =   1.0683741656251E-02
(PID.TID 0000.0001) %MON dynstat_uvel_min             =  -4.9047543739149E-02
(PID.TID 0000.0001) %MON dynstat_uvel_mean            =  -1.0824119710024E-07
(PID.TID 0000.0001) %MON dynstat_uvel_sd              =   1.4117695170812E-03
(PID.TID 0000.0001) %MON dynstat_uvel_del2            =   2.1152994538478E-06
(PID.TID 0000.0001) %MON dynstat_vvel_max             =   3.3382017394520E-02
(PID.TID 0000.0001) %MON dynstat_vvel_min             =  -1.6443654424652E-02
(PID.TID 0000.0001) %MON dynstat_vvel_mean            =   1.5283634075042E-05
(PID.TID 0000.0001) %MON dynstat_vvel_sd              =   7.6185351121837E-04
(PID.TID 0000.0001) %MON dynstat_vvel_del2            =   1.5733578811503E-06
(PID.TID 0000.0001) %MON dynstat_wvel_max             =   1.8081216474550E-03
(PID.TID 0000.0001) %MON dynstat_wvel_min             =  -1.7445413956632E-03
(PID.TID 0000.0001) %MON dynstat_wvel_mean            =   7.2923801714904E-09
(PID.TID 0000.0001) %MON dynstat_wvel_sd              =   2.8981781441508E-05
(PID.TID 0000.0001) %MON dynstat_wvel_del2            =   1.1717003130161E-07
(PID.TID 0000.0001) %MON dynstat_theta_max            =   1.2000000000000E+00
(PID.TID 0000.0001) %MON dynstat_theta_min            =  -1.0000000000000E+00
(PID.TID 0000.0001) %MON dynstat_theta_mean           =   5.6839373431398E-01
(PID.TID 0000.0001) %MON dynstat_theta_sd             =   8.6820139757326E-01
(PID.TID 0000.0001) %MON dynstat_theta_del2           =   5.0068595898828E-06
(PID.TID 0000.0001) %MON dynstat_salt_max             =   3.4700000000000E+01
(PID.TID 0000.0001) %MON dynstat_salt_min             =   3.4000000000000E+01
(PID.TID 0000.0001) %MON dynstat_salt_mean            =   3.4498971577296E+01
(PID.TID 0000.0001) %MON dynstat_salt_sd              =   2.7622081073670E-01
(PID.TID 0000.0001) %MON dynstat_salt_del2            =   1.9830213937814E-06
(PID.TID 0000.0001) %MON advcfl_uvel_max              =   4.9047543739149E-03
(PID.TID 0000.0001) %MON advcfl_vvel_max              =   3.3382017394520E-03
(PID.TID 0000.0001) %MON advcfl_wvel_max              =   9.0406082372748E-03
(PID.TID 0000.0001) %MON advcfl_W_hf_max              =   9.0406082372748E-03
(PID.TID 0000.0001) %MON pe_b_mean                    =  -8.2964308784789E-01
(PID.TID 0000.0001) %MON ke_max                       =   9.7676882350330E-04
(PID.TID 0000.0001) %MON ke_mean                      =   1.2671043681797E-06
(PID.TID 0000.0001) %MON ke_vol                       =   4.2724672526744E+12
(PID.TID 0000.0001) // =======================================================
(PID.TID 0000.0001) // End MONITOR dynamic field statistics
(PID.TID 0000.0001) // =======================================================
(PID.TID 0000.0001) // =======================================================
(PID.TID 0000.0001) // Begin OBCS MONITOR field statistics
(PID.TID 0000.0001) // =======================================================
(PID.TID 0000.0001) %MON obc_N_vVel_max               =   1.4980122418715E-05
(PID.TID 0000.0001) %MON obc_N_vVel_min               =   1.4980122418715E-05
(PID.TID 0000.0001) %MON obc_N_vVel_mean              =   1.4980122418715E-05
(PID.TID 0000.0001) %MON obc_N_vVel_sd                =   3.4030175691204E-12
(PID.TID 0000.0001) %MON obc_N_vVel_Int               =   9.8868807963516E+02
(PID.TID 0000.0001) // =======================================================
(PID.TID 0000.0001) // End OBCS MONITOR field statistics
(PID.TID 0000.0001) // =======================================================
 cg2d: Sum(rhs),rhsMax =   4.50754185809912E+00  2.99957908999502E+02
(PID.TID 0000.0001)      cg2d_init_res =   9.83168091387941E-06
(PID.TID 0000.0001)      cg2d_iters(min,last) =      -1      84
(PID.TID 0000.0001)      cg2d_last_res =   8.97620841875626E-12
(PID.TID 0000.0001) // =======================================================
(PID.TID 0000.0001) // Begin MONITOR dynamic field statistics
(PID.TID 0000.0001) // =======================================================
(PID.TID 0000.0001) %MON time_tsnumber                =                  1363
(PID.TID 0000.0001) %MON time_secondsf                =   1.3630000000000E+05
(PID.TID 0000.0001) %MON dynstat_eta_max              =   5.7991698839961E+00
(PID.TID 0000.0001) %MON dynstat_eta_min              =  -1.4190687977131E+01
(PID.TID 0000.0001) %MON dynstat_eta_mean             =  -2.5038385749688E+00
(PID.TID 0000.0001) %MON dynstat_eta_sd               =   4.9499778402524E+00
(PID.TID 0000.0001) %MON dynstat_eta_del2             =   2.0716353445104E-01
(PID.TID 0000.0001) %MON dynstat_uvel_max             =   1.0708986477010E-02
(PID.TID 0000.0001) %MON dynstat_uvel_min             =  -4.9155932764992E-02
(PID.TID 0000.0001) %MON dynstat_uvel_mean            =  -1.0810900633461E-07
(PID.TID 0000.0001) %MON dynstat_uvel_sd              =   1.4149296164335E-03
(PID.TID 0000.0001) %MON dynstat_uvel_del2            =   2.1204330740545E-06
(PID.TID 0000.0001) %MON dynstat_vvel_max             =   3.3432496906303E-02
(PID.TID 0000.0001) %MON dynstat_vvel_min             =  -1.6484203727032E-02
(PID.TID 0000.0001) %MON dynstat_vvel_mean            =   1.5272855651901E-05
(PID.TID 0000.0001) %MON dynstat_vvel_sd              =   7.6334036435646E-04
(PID.TID 0000.0001) %MON dynstat_vvel_del2            =   1.5765033414219E-06
(PID.TID 0000.0001) %MON dynstat_wvel_max             =   1.8113046190600E-03
(PID.TID 0000.0001) %MON dynstat_wvel_min             =  -1.7477244527175E-03
(PID.TID 0000.0001) %MON dynstat_wvel_mean            =   7.2650689302501E-09
(PID.TID 0000.0001) %MON dynstat_wvel_sd              =   2.9054216489629E-05
(PID.TID 0000.0001) %MON dynstat_wvel_del2            =   1.1741267232276E-07
(PID.TID 0000.0001) %MON dynstat_theta_max            =   1.2000000000000E+00
(PID.TID 0000.0001) %MON dynstat_theta_min            =  -1.0000000000000E+00
(PID.TID 0000.0001) %MON dynstat_theta_mean           =   5.6839228888466E-01
(PID.TID 0000.0001) %MON dynstat_theta_sd             =   8.6820063133932E-01
(PID.TID 0000.0001) %MON dynstat_theta_del2           =   5.0164594202208E-06
(PID.TID 0000.0001) %MON dynstat_salt_max             =   3.4700000000000E+01
(PID.TID 0000.0001) %MON dynstat_salt_min             =   3.4000000000000E+01
(PID.TID 0000.0001) %MON dynstat_salt_mean            =   3.4498970998596E+01
(PID.TID 0000.0001) %MON dynstat_salt_sd              =   2.7622051699418E-01
(PID.TID 0000.0001) %MON dynstat_salt_del2            =   1.9868455959613E-06
(PID.TID 0000.0001) %MON advcfl_uvel_max              =   4.9155932764992E-03
(PID.TID 0000.0001) %MON advcfl_vvel_max              =   3.3432496906303E-03
(PID.TID 0000.0001) %MON advcfl_wvel_max              =   9.0565230952999E-03
(PID.TID 0000.0001) %MON advcfl_W_hf_max              =   9.0565230952999E-03
(PID.TID 0000.0001) %MON pe_b_mean                    =  -8.2964377060100E-01
(PID.TID 0000.0001) %MON ke_max                       =   9.8150847491288E-04
(PID.TID 0000.0001) %MON ke_mean                      =   1.2726158155065E-06
(PID.TID 0000.0001) %MON ke_vol                       =   4.2724672256790E+12
(PID.TID 0000.0001) // =======================================================
(PID.TID 0000.0001) // End MONITOR dynamic field statistics
(PID.TID 0000.0001) // =======================================================
(PID.TID 0000.0001) // =======================================================
(PID.TID 0000.0001) // Begin OBCS MONITOR field statistics
(PID.TID 0000.0001) // =======================================================
(PID.TID 0000.0001) %MON obc_N_vVel_max               =   1.4971838461952E-05
(PID.TID 0000.0001) %MON obc_N_vVel_min               =   1.4971838461952E-05
(PID.TID 0000.0001) %MON obc_N_vVel_mean              =   1.4971838461952E-05
(PID.TID 0000.0001) %MON obc_N_vVel_sd                =   9.5117232664742E-13
(PID.TID 0000.0001) %MON obc_N_vVel_Int               =   9.8814133848882E+02
(PID.TID 0000.0001) // =======================================================
(PID.TID 0000.0001) // End OBCS MONITOR field statistics
(PID.TID 0000.0001) // =======================================================
 cg2d: Sum(rhs),rhsMax =   4.50754878688098E+00  2.99957984834955E+02
(PID.TID 0000.0001)      cg2d_init_res =   9.83718411594199E-06
(PID.TID 0000.0001)      cg2d_iters(min,last) =      -1      84
(PID.TID 0000.0001)      cg2d_last_res =   8.97999478001194E-12
(PID.TID 0000.0001) // =======================================================
(PID.TID 0000.0001) // Begin MONITOR dynamic field statistics
(PID.TID 0000.0001) // =======================================================
(PID.TID 0000.0001) %MON time_tsnumber                =                  1364
(PID.TID 0000.0001) %MON time_secondsf                =   1.3640000000000E+05
(PID.TID 0000.0001) %MON dynstat_eta_max              =   5.7991927628002E+00
(PID.TID 0000.0001) %MON dynstat_eta_min              =  -1.4190717761806E+01
(PID.TID 0000.0001) %MON dynstat_eta_mean             =  -2.5038430567742E+00
(PID.TID 0000.0001) %MON dynstat_eta_sd               =   4.9499798317557E+00
(PID.TID 0000.0001) %MON dynstat_eta_del2             =   2.0716358342229E-01
(PID.TID 0000.0001) %MON dynstat_uvel_max             =   1.0734276055388E-02
(PID.TID 0000.0001) %MON dynstat_uvel_min             =  -4.9264449420688E-02
(PID.TID 0000.0001) %MON dynstat_uvel_mean            =  -1.0798864476374E-07
(PID.TID 0000.0001) %MON dynstat_uvel_sd              =   1.4180959434286E-03
(PID.TID 0000.0001) %MON dynstat_uvel_del2            =   2.1255792610855E-06
(PID.TID 0000.0001) %MON dynstat_vvel_max             =   3.3482962070516E-02
(PID.TID 0000.0001) %MON dynstat_vvel_min             =  -1.6524839374718E-02
(PID.TID 0000.0001) %MON dynstat_vvel_mean            =   1.5260340693593E-05
(PID.TID 0000.0001) %MON dynstat_vvel_sd              =   7.6482894096637E-04
(PID.TID 0000.0001) %MON dynstat_vvel_del2            =   1.5796555716708E-06
(PID.TID 0000.0001) %MON dynstat_wvel_max             =   1.8144878895685E-03
(PID.TID 0000.0001) %MON dynstat_wvel_min             =  -1.7509088289079E-03
(PID.TID 0000.0001) %MON dynstat_wvel_mean            =   7.2374623184794E-09
(PID.TID 0000.0001) %MON dynstat_wvel_sd              =   2.9126706886205E-05
(PID.TID 0000.0001) %MON dynstat_wvel_del2            =   1.1766214683090E-07
(PID.TID 0000.0001) %MON dynstat_theta_max            =   1.2000000000000E+00
(PID.TID 0000.0001) %MON dynstat_theta_min            =  -1.0000000000000E+00
(PID.TID 0000.0001) %MON dynstat_theta_mean           =   5.6839084078934E-01
(PID.TID 0000.0001) %MON dynstat_theta_sd             =   8.6819986394858E-01
(PID.TID 0000.0001) %MON dynstat_theta_del2           =   5.0260762767756E-06
(PID.TID 0000.0001) %MON dynstat_salt_max             =   3.4700000000000E+01
(PID.TID 0000.0001) %MON dynstat_salt_min             =   3.4000000000000E+01
(PID.TID 0000.0001) %MON dynstat_salt_mean            =   3.4498970418839E+01
(PID.TID 0000.0001) %MON dynstat_salt_sd              =   2.7622022281672E-01
(PID.TID 0000.0001) %MON dynstat_salt_del2            =   1.9906765459113E-06
(PID.TID 0000.0001) %MON advcfl_uvel_max              =   4.9264449420688E-03
(PID.TID 0000.0001) %MON advcfl_vvel_max              =   3.3482962070516E-03
(PID.TID 0000.0001) %MON advcfl_wvel_max              =   9.0724394478423E-03
(PID.TID 0000.0001) %MON advcfl_W_hf_max              =   9.0724394478423E-03
(PID.TID 0000.0001) %MON pe_b_mean                    =  -8.2964444260786E-01
(PID.TID 0000.0001) %MON ke_max                       =   9.8626625541207E-04
(PID.TID 0000.0001) %MON ke_mean                      =   1.2781492100276E-06
(PID.TID 0000.0001) %MON ke_vol                       =   4.2724671988647E+12
(PID.TID 0000.0001) // =======================================================
(PID.TID 0000.0001) // End MONITOR dynamic field statistics
(PID.TID 0000.0001) // =======================================================
(PID.TID 0000.0001) // =======================================================
(PID.TID 0000.0001) // Begin OBCS MONITOR field statistics
(PID.TID 0000.0001) // =======================================================
(PID.TID 0000.0001) %MON obc_N_vVel_max               =   1.4961894505171E-05
(PID.TID 0000.0001) %MON obc_N_vVel_min               =   1.4961894505171E-05
(PID.TID 0000.0001) %MON obc_N_vVel_mean              =   1.4961894505171E-05
(PID.TID 0000.0001) %MON obc_N_vVel_sd                =   1.5587953840625E-12
(PID.TID 0000.0001) %MON obc_N_vVel_Int               =   9.8748503734131E+02
(PID.TID 0000.0001) // =======================================================
(PID.TID 0000.0001) // End OBCS MONITOR field statistics
(PID.TID 0000.0001) // =======================================================
 cg2d: Sum(rhs),rhsMax =   4.50755565892161E+00  2.99958060369656E+02
(PID.TID 0000.0001)      cg2d_init_res =   9.84285458678263E-06
(PID.TID 0000.0001)      cg2d_iters(min,last) =      -1      84
(PID.TID 0000.0001)      cg2d_last_res =   8.98464911734958E-12
(PID.TID 0000.0001) // =======================================================
(PID.TID 0000.0001) // Begin MONITOR dynamic field statistics
(PID.TID 0000.0001) // =======================================================
(PID.TID 0000.0001) %MON time_tsnumber                =                  1365
(PID.TID 0000.0001) %MON time_secondsf                =   1.3650000000000E+05
(PID.TID 0000.0001) %MON dynstat_eta_max              =   5.7992157613115E+00
(PID.TID 0000.0001) %MON dynstat_eta_min              =  -1.4190747524136E+01
(PID.TID 0000.0001) %MON dynstat_eta_mean             =  -2.5038475045526E+00
(PID.TID 0000.0001) %MON dynstat_eta_sd               =   4.9499818118315E+00
(PID.TID 0000.0001) %MON dynstat_eta_del2             =   2.0716363246355E-01
(PID.TID 0000.0001) %MON dynstat_uvel_max             =   1.0759610411961E-02
(PID.TID 0000.0001) %MON dynstat_uvel_min             =  -4.9373093398253E-02
(PID.TID 0000.0001) %MON dynstat_uvel_mean            =  -1.0788169607082E-07
(PID.TID 0000.0001) %MON dynstat_uvel_sd              =   1.4212685056016E-03
(PID.TID 0000.0001) %MON dynstat_uvel_del2            =   2.1307380436513E-06
(PID.TID 0000.0001) %MON dynstat_vvel_max             =   3.3533412701638E-02
(PID.TID 0000.0001) %MON dynstat_vvel_min             =  -1.6565561415391E-02
(PID.TID 0000.0001) %MON dynstat_vvel_mean            =   1.5246359196392E-05
(PID.TID 0000.0001) %MON dynstat_vvel_sd              =   7.6631903035019E-04
(PID.TID 0000.0001) %MON dynstat_vvel_del2            =   1.5828139110532E-06
(PID.TID 0000.0001) %MON dynstat_wvel_max             =   1.8176714390791E-03
(PID.TID 0000.0001) %MON dynstat_wvel_min             =  -1.7540945105888E-03
(PID.TID 0000.0001) %MON dynstat_wvel_mean            =   7.2101248867290E-09
(PID.TID 0000.0001) %MON dynstat_wvel_sd              =   2.9198606253525E-05
(PID.TID 0000.0001) %MON dynstat_wvel_del2            =   1.1791541731847E-07
(PID.TID 0000.0001) %MON dynstat_theta_max            =   1.2000000000000E+00
(PID.TID 0000.0001) %MON dynstat_theta_min            =  -1.0000000000000E+00
(PID.TID 0000.0001) %MON dynstat_theta_mean           =   5.6838939002027E-01
(PID.TID 0000.0001) %MON dynstat_theta_sd             =   8.6819909540034E-01
(PID.TID 0000.0001) %MON dynstat_theta_del2           =   5.0357129082696E-06
(PID.TID 0000.0001) %MON dynstat_salt_max             =   3.4700000000000E+01
(PID.TID 0000.0001) %MON dynstat_salt_min             =   3.4000000000000E+01
(PID.TID 0000.0001) %MON dynstat_salt_mean            =   3.4498969838020E+01
(PID.TID 0000.0001) %MON dynstat_salt_sd              =   2.7621992820399E-01
(PID.TID 0000.0001) %MON dynstat_salt_del2            =   1.9945148837458E-06
(PID.TID 0000.0001) %MON advcfl_uvel_max              =   4.9373093398253E-03
(PID.TID 0000.0001) %MON advcfl_vvel_max              =   3.3533412701638E-03
(PID.TID 0000.0001) %MON advcfl_wvel_max              =   9.0883571953957E-03
(PID.TID 0000.0001) %MON advcfl_W_hf_max              =   9.0883571953957E-03
(PID.TID 0000.0001) %MON pe_b_mean                    =  -8.2964510350178E-01
(PID.TID 0000.0001) %MON ke_max                       =   9.9104219981532E-04
(PID.TID 0000.0001) %MON ke_mean                      =   1.2837044706286E-06
(PID.TID 0000.0001) %MON ke_vol                       =   4.2724671722428E+12
(PID.TID 0000.0001) // =======================================================
(PID.TID 0000.0001) // End MONITOR dynamic field statistics
(PID.TID 0000.0001) // =======================================================
(PID.TID 0000.0001) // =======================================================
(PID.TID 0000.0001) // Begin OBCS MONITOR field statistics
(PID.TID 0000.0001) // =======================================================
(PID.TID 0000.0001) %MON obc_N_vVel_max               =   1.4950507806898E-05
(PID.TID 0000.0001) %MON obc_N_vVel_min               =   1.4950507806897E-05
(PID.TID 0000.0001) %MON obc_N_vVel_mean              =   1.4950507806898E-05
(PID.TID 0000.0001) %MON obc_N_vVel_sd                =  -1.6388515886207E-23
(PID.TID 0000.0001) %MON obc_N_vVel_Int               =   9.8673351525525E+02
(PID.TID 0000.0001) // =======================================================
(PID.TID 0000.0001) // End OBCS MONITOR field statistics
(PID.TID 0000.0001) // =======================================================
 cg2d: Sum(rhs),rhsMax =   4.50756247166631E+00  2.99958135609010E+02
(PID.TID 0000.0001)      cg2d_init_res =   9.84882379405961E-06
(PID.TID 0000.0001)      cg2d_iters(min,last) =      -1      84
(PID.TID 0000.0001)      cg2d_last_res =   8.99031327112572E-12
(PID.TID 0000.0001) // =======================================================
(PID.TID 0000.0001) // Begin MONITOR dynamic field statistics
(PID.TID 0000.0001) // =======================================================
(PID.TID 0000.0001) %MON time_tsnumber                =                  1366
(PID.TID 0000.0001) %MON time_secondsf                =   1.3660000000000E+05
(PID.TID 0000.0001) %MON dynstat_eta_max              =   5.7992388817345E+00
(PID.TID 0000.0001) %MON dynstat_eta_min              =  -1.4190777263113E+01
(PID.TID 0000.0001) %MON dynstat_eta_mean             =  -2.5038519169299E+00
(PID.TID 0000.0001) %MON dynstat_eta_sd               =   4.9499837802676E+00
(PID.TID 0000.0001) %MON dynstat_eta_del2             =   2.0716368157512E-01
(PID.TID 0000.0001) %MON dynstat_uvel_max             =   1.0784989565652E-02
(PID.TID 0000.0001) %MON dynstat_uvel_min             =  -4.9481864384254E-02
(PID.TID 0000.0001) %MON dynstat_uvel_mean            =  -1.0778950283130E-07
(PID.TID 0000.0001) %MON dynstat_uvel_sd              =   1.4244473104042E-03
(PID.TID 0000.0001) %MON dynstat_uvel_del2            =   2.1359094515799E-06
(PID.TID 0000.0001) %MON dynstat_vvel_max             =   3.3583848618172E-02
(PID.TID 0000.0001) %MON dynstat_vvel_min             =  -1.6606369889388E-02
(PID.TID 0000.0001) %MON dynstat_vvel_mean            =   1.5231207444034E-05
(PID.TID 0000.0001) %MON dynstat_vvel_sd              =   7.6781043062936E-04
(PID.TID 0000.0001) %MON dynstat_vvel_del2            =   1.5859776498724E-06
(PID.TID 0000.0001) %MON dynstat_wvel_max             =   1.8208552476272E-03
(PID.TID 0000.0001) %MON dynstat_wvel_min             =  -1.7572814907406E-03
(PID.TID 0000.0001) %MON dynstat_wvel_mean            =   7.1836116699859E-09
(PID.TID 0000.0001) %MON dynstat_wvel_sd              =   2.9269239654283E-05
(PID.TID 0000.0001) %MON dynstat_wvel_del2            =   1.1816918463816E-07
(PID.TID 0000.0001) %MON dynstat_theta_max            =   1.2000000000000E+00
(PID.TID 0000.0001) %MON dynstat_theta_min            =  -1.0000000000000E+00
(PID.TID 0000.0001) %MON dynstat_theta_mean           =   5.6838793657022E-01
(PID.TID 0000.0001) %MON dynstat_theta_sd             =   8.6819832569562E-01
(PID.TID 0000.0001) %MON dynstat_theta_del2           =   5.0453686986688E-06
(PID.TID 0000.0001) %MON dynstat_salt_max             =   3.4700000000000E+01
(PID.TID 0000.0001) %MON dynstat_salt_min             =   3.4000000000000E+01
(PID.TID 0000.0001) %MON dynstat_salt_mean            =   3.4498969256138E+01
(PID.TID 0000.0001) %MON dynstat_salt_sd              =   2.7621963315663E-01
(PID.TID 0000.0001) %MON dynstat_salt_del2            =   1.9983603490228E-06
(PID.TID 0000.0001) %MON advcfl_uvel_max              =   4.9481864384254E-03
(PID.TID 0000.0001) %MON advcfl_vvel_max              =   3.3583848618172E-03
(PID.TID 0000.0001) %MON advcfl_wvel_max              =   9.1042762381360E-03
(PID.TID 0000.0001) %MON advcfl_W_hf_max              =   9.1042762381360E-03
(PID.TID 0000.0001) %MON pe_b_mean                    =  -8.2964575299335E-01
(PID.TID 0000.0001) %MON ke_max                       =   9.9583634283292E-04
(PID.TID 0000.0001) %MON ke_mean                      =   1.2892815221994E-06
(PID.TID 0000.0001) %MON ke_vol                       =   4.2724671458230E+12
(PID.TID 0000.0001) // =======================================================
(PID.TID 0000.0001) // End MONITOR dynamic field statistics
(PID.TID 0000.0001) // =======================================================
(PID.TID 0000.0001) // =======================================================
(PID.TID 0000.0001) // Begin OBCS MONITOR field statistics
(PID.TID 0000.0001) // =======================================================
(PID.TID 0000.0001) %MON obc_N_vVel_max               =   1.4937921819282E-05
(PID.TID 0000.0001) %MON obc_N_vVel_min               =   1.4937921819282E-05
(PID.TID 0000.0001) %MON obc_N_vVel_mean              =   1.4937921819282E-05
(PID.TID 0000.0001) %MON obc_N_vVel_sd                =  -1.4475660719678E-24
(PID.TID 0000.0001) %MON obc_N_vVel_Int               =   9.8590284007260E+02
(PID.TID 0000.0001) // =======================================================
(PID.TID 0000.0001) // End OBCS MONITOR field statistics
(PID.TID 0000.0001) // =======================================================
 cg2d: Sum(rhs),rhsMax =   4.50756922302193E+00  2.99958210563491E+02
(PID.TID 0000.0001)      cg2d_init_res =   9.85525198567057E-06
(PID.TID 0000.0001)      cg2d_iters(min,last) =      -1      84
(PID.TID 0000.0001)      cg2d_last_res =   8.99712044356911E-12
(PID.TID 0000.0001) // =======================================================
(PID.TID 0000.0001) // Begin MONITOR dynamic field statistics
(PID.TID 0000.0001) // =======================================================
(PID.TID 0000.0001) %MON time_tsnumber                =                  1367
(PID.TID 0000.0001) %MON time_secondsf                =   1.3670000000000E+05
(PID.TID 0000.0001) %MON dynstat_eta_max              =   5.7992621256495E+00
(PID.TID 0000.0001) %MON dynstat_eta_min              =  -1.4190806978115E+01
(PID.TID 0000.0001) %MON dynstat_eta_mean             =  -2.5038562928310E+00
(PID.TID 0000.0001) %MON dynstat_eta_sd               =   4.9499857369683E+00
(PID.TID 0000.0001) %MON dynstat_eta_del2             =   2.0716373075730E-01
(PID.TID 0000.0001) %MON dynstat_uvel_max             =   1.0810413529278E-02
(PID.TID 0000.0001) %MON dynstat_uvel_min             =  -4.9590762059187E-02
(PID.TID 0000.0001) %MON dynstat_uvel_mean            =  -1.0771306745372E-07
(PID.TID 0000.0001) %MON dynstat_uvel_sd              =   1.4276323641053E-03
(PID.TID 0000.0001) %MON dynstat_uvel_del2            =   2.1410935132679E-06
(PID.TID 0000.0001) %MON dynstat_vvel_max             =   3.3634269648553E-02
(PID.TID 0000.0001) %MON dynstat_vvel_min             =  -1.6647264834702E-02
(PID.TID 0000.0001) %MON dynstat_vvel_mean            =   1.5215202066499E-05
(PID.TID 0000.0001) %MON dynstat_vvel_sd              =   7.6930295712918E-04
(PID.TID 0000.0001) %MON dynstat_vvel_del2            =   1.5891460867346E-06
(PID.TID 0000.0001) %MON dynstat_wvel_max             =   1.8240392951742E-03
(PID.TID 0000.0001) %MON dynstat_wvel_min             =  -1.7604697674692E-03
(PID.TID 0000.0001) %MON dynstat_wvel_mean            =   7.1584582843963E-09
(PID.TID 0000.0001) %MON dynstat_wvel_sd              =   2.9337941282502E-05
(PID.TID 0000.0001) %MON dynstat_wvel_del2            =   1.1842011611048E-07
(PID.TID 0000.0001) %MON dynstat_theta_max            =   1.2000000000000E+00
(PID.TID 0000.0001) %MON dynstat_theta_min            =  -1.0000000000000E+00
(PID.TID 0000.0001) %MON dynstat_theta_mean           =   5.6838648043292E-01
(PID.TID 0000.0001) %MON dynstat_theta_sd             =   8.6819755483560E-01
(PID.TID 0000.0001) %MON dynstat_theta_del2           =   5.0550451310848E-06
(PID.TID 0000.0001) %MON dynstat_salt_max             =   3.4700000000000E+01
(PID.TID 0000.0001) %MON dynstat_salt_min             =   3.4000000000000E+01
(PID.TID 0000.0001) %MON dynstat_salt_mean            =   3.4498968673190E+01
(PID.TID 0000.0001) %MON dynstat_salt_sd              =   2.7621933767471E-01
(PID.TID 0000.0001) %MON dynstat_salt_del2            =   2.0022133612727E-06
(PID.TID 0000.0001) %MON advcfl_uvel_max              =   4.9590762059187E-03
(PID.TID 0000.0001) %MON advcfl_vvel_max              =   3.3634269648553E-03
(PID.TID 0000.0001) %MON advcfl_wvel_max              =   9.1201964758710E-03
(PID.TID 0000.0001) %MON advcfl_W_hf_max              =   9.1201964758710E-03
(PID.TID 0000.0001) %MON pe_b_mean                    =  -8.2964639087653E-01
(PID.TID 0000.0001) %MON ke_max                       =   1.0006487190516E-03
(PID.TID 0000.0001) %MON ke_mean                      =   1.2948803005107E-06
(PID.TID 0000.0001) %MON ke_vol                       =   4.2724671196134E+12
(PID.TID 0000.0001) // =======================================================
(PID.TID 0000.0001) // End MONITOR dynamic field statistics
(PID.TID 0000.0001) // =======================================================
(PID.TID 0000.0001) // =======================================================
(PID.TID 0000.0001) // Begin OBCS MONITOR field statistics
(PID.TID 0000.0001) // =======================================================
(PID.TID 0000.0001) %MON obc_N_vVel_max               =   1.4924401283764E-05
(PID.TID 0000.0001) %MON obc_N_vVel_min               =   1.4924401283764E-05
(PID.TID 0000.0001) %MON obc_N_vVel_mean              =   1.4924401283764E-05
(PID.TID 0000.0001) %MON obc_N_vVel_sd                =  -1.8094575899597E-23
(PID.TID 0000.0001) %MON obc_N_vVel_Int               =   9.8501048472843E+02
(PID.TID 0000.0001) // =======================================================
(PID.TID 0000.0001) // End OBCS MONITOR field statistics
(PID.TID 0000.0001) // =======================================================
 cg2d: Sum(rhs),rhsMax =   4.50757591138200E+00  2.99958285248412E+02
(PID.TID 0000.0001)      cg2d_init_res =   9.86222679648174E-06
(PID.TID 0000.0001)      cg2d_iters(min,last) =      -1      84
(PID.TID 0000.0001)      cg2d_last_res =   9.00514443476533E-12
(PID.TID 0000.0001) // =======================================================
(PID.TID 0000.0001) // Begin MONITOR dynamic field statistics
(PID.TID 0000.0001) // =======================================================
(PID.TID 0000.0001) %MON time_tsnumber                =                  1368
(PID.TID 0000.0001) %MON time_secondsf                =   1.3680000000000E+05
(PID.TID 0000.0001) %MON dynstat_eta_max              =   5.7992854939947E+00
(PID.TID 0000.0001) %MON dynstat_eta_min              =  -1.4190836668920E+01
(PID.TID 0000.0001) %MON dynstat_eta_mean             =  -2.5038606314911E+00
(PID.TID 0000.0001) %MON dynstat_eta_sd               =   4.9499876819517E+00
(PID.TID 0000.0001) %MON dynstat_eta_del2             =   2.0716378001048E-01
(PID.TID 0000.0001) %MON dynstat_uvel_max             =   1.0835882312932E-02
(PID.TID 0000.0001) %MON dynstat_uvel_min             =  -4.9699786097119E-02
(PID.TID 0000.0001) %MON dynstat_uvel_mean            =  -1.0765314058812E-07
(PID.TID 0000.0001) %MON dynstat_uvel_sd              =   1.4308236727083E-03
(PID.TID 0000.0001) %MON dynstat_uvel_del2            =   2.1462902577242E-06
(PID.TID 0000.0001) %MON dynstat_vvel_max             =   3.3684675619440E-02
(PID.TID 0000.0001) %MON dynstat_vvel_min             =  -1.6688246287645E-02
(PID.TID 0000.0001) %MON dynstat_vvel_mean            =   1.5198673744002E-05
(PID.TID 0000.0001) %MON dynstat_vvel_sd              =   7.7079644831289E-04
(PID.TID 0000.0001) %MON dynstat_vvel_del2            =   1.5923185767889E-06
(PID.TID 0000.0001) %MON dynstat_wvel_max             =   1.8272235617430E-03
(PID.TID 0000.0001) %MON dynstat_wvel_min             =  -1.7636593386436E-03
(PID.TID 0000.0001) %MON dynstat_wvel_mean            =   7.1351695361143E-09
(PID.TID 0000.0001) %MON dynstat_wvel_sd              =   2.9404092276477E-05
(PID.TID 0000.0001) %MON dynstat_wvel_del2            =   1.1866507419576E-07
(PID.TID 0000.0001) %MON dynstat_theta_max            =   1.2000000000000E+00
(PID.TID 0000.0001) %MON dynstat_theta_min            =  -1.0000000000000E+00
(PID.TID 0000.0001) %MON dynstat_theta_mean           =   5.6838502160237E-01
(PID.TID 0000.0001) %MON dynstat_theta_sd             =   8.6819678282098E-01
(PID.TID 0000.0001) %MON dynstat_theta_del2           =   5.0647430454267E-06
(PID.TID 0000.0001) %MON dynstat_salt_max             =   3.4700000000000E+01
(PID.TID 0000.0001) %MON dynstat_salt_min             =   3.4000000000000E+01
(PID.TID 0000.0001) %MON dynstat_salt_mean            =   3.4498968089174E+01
(PID.TID 0000.0001) %MON dynstat_salt_sd              =   2.7621904175883E-01
(PID.TID 0000.0001) %MON dynstat_salt_del2            =   2.0060741306375E-06
(PID.TID 0000.0001) %MON advcfl_uvel_max              =   4.9699786097119E-03
(PID.TID 0000.0001) %MON advcfl_vvel_max              =   3.3684675619440E-03
(PID.TID 0000.0001) %MON advcfl_wvel_max              =   9.1361178087151E-03
(PID.TID 0000.0001) %MON advcfl_W_hf_max              =   9.1361178087151E-03
(PID.TID 0000.0001) %MON pe_b_mean                    =  -8.2964701702963E-01
(PID.TID 0000.0001) %MON ke_max                       =   1.0054793629187E-03
(PID.TID 0000.0001) %MON ke_mean                      =   1.3005007580839E-06
(PID.TID 0000.0001) %MON ke_vol                       =   4.2724670936206E+12
(PID.TID 0000.0001) // =======================================================
(PID.TID 0000.0001) // End MONITOR dynamic field statistics
(PID.TID 0000.0001) // =======================================================
(PID.TID 0000.0001) // =======================================================
(PID.TID 0000.0001) // Begin OBCS MONITOR field statistics
(PID.TID 0000.0001) // =======================================================
(PID.TID 0000.0001) %MON obc_N_vVel_max               =   1.4910226918679E-05
(PID.TID 0000.0001) %MON obc_N_vVel_min               =   1.4910226918679E-05
(PID.TID 0000.0001) %MON obc_N_vVel_mean              =   1.4910226918679E-05
(PID.TID 0000.0001) %MON obc_N_vVel_sd                =   2.4646719098972E-12
(PID.TID 0000.0001) %MON obc_N_vVel_Int               =   9.8407497663281E+02
(PID.TID 0000.0001) // =======================================================
(PID.TID 0000.0001) // End OBCS MONITOR field statistics
(PID.TID 0000.0001) // =======================================================
 cg2d: Sum(rhs),rhsMax =   4.50758253565806E+00  2.99958359683474E+02
(PID.TID 0000.0001)      cg2d_init_res =   9.86983560704167E-06
(PID.TID 0000.0001)      cg2d_iters(min,last) =      -1      84
(PID.TID 0000.0001)      cg2d_last_res =   9.01445309644768E-12
(PID.TID 0000.0001) // =======================================================
(PID.TID 0000.0001) // Begin MONITOR dynamic field statistics
(PID.TID 0000.0001) // =======================================================
(PID.TID 0000.0001) %MON time_tsnumber                =                  1369
(PID.TID 0000.0001) %MON time_secondsf                =   1.3690000000000E+05
(PID.TID 0000.0001) %MON dynstat_eta_max              =   5.7993089870551E+00
(PID.TID 0000.0001) %MON dynstat_eta_min              =  -1.4190866335701E+01
(PID.TID 0000.0001) %MON dynstat_eta_mean             =  -2.5038649324701E+00
(PID.TID 0000.0001) %MON dynstat_eta_sd               =   4.9499896153473E+00
(PID.TID 0000.0001) %MON dynstat_eta_del2             =   2.0716382933516E-01
(PID.TID 0000.0001) %MON dynstat_uvel_max             =   1.0861395928538E-02
(PID.TID 0000.0001) %MON dynstat_uvel_min             =  -4.9808936165094E-02
(PID.TID 0000.0001) %MON dynstat_uvel_mean            =  -1.0761014432402E-07
(PID.TID 0000.0001) %MON dynstat_uvel_sd              =   1.4340212416522E-03
(PID.TID 0000.0001) %MON dynstat_uvel_del2            =   2.1514997139142E-06
(PID.TID 0000.0001) %MON dynstat_vvel_max             =   3.3735066360300E-02
(PID.TID 0000.0001) %MON dynstat_vvel_min             =  -1.6729314280992E-02
(PID.TID 0000.0001) %MON dynstat_vvel_mean            =   1.5181960692110E-05
(PID.TID 0000.0001) %MON dynstat_vvel_sd              =   7.7229077254466E-04
(PID.TID 0000.0001) %MON dynstat_vvel_del2            =   1.5954945793438E-06
(PID.TID 0000.0001) %MON dynstat_wvel_max             =   1.8304080272239E-03
(PID.TID 0000.0001) %MON dynstat_wvel_min             =  -1.7668502019245E-03
(PID.TID 0000.0001) %MON dynstat_wvel_mean            =   7.1142102749454E-09
(PID.TID 0000.0001) %MON dynstat_wvel_sd              =   2.9467155339099E-05
(PID.TID 0000.0001) %MON dynstat_wvel_del2            =   1.1890132610265E-07
(PID.TID 0000.0001) %MON dynstat_theta_max            =   1.2000000000000E+00
(PID.TID 0000.0001) %MON dynstat_theta_min            =  -1.0000000000000E+00
(PID.TID 0000.0001) %MON dynstat_theta_mean           =   5.6838356007308E-01
(PID.TID 0000.0001) %MON dynstat_theta_sd             =   8.6819600965290E-01
(PID.TID 0000.0001) %MON dynstat_theta_del2           =   5.0744630876421E-06
(PID.TID 0000.0001) %MON dynstat_salt_max             =   3.4700000000000E+01
(PID.TID 0000.0001) %MON dynstat_salt_min             =   3.4000000000000E+01
(PID.TID 0000.0001) %MON dynstat_salt_mean            =   3.4498967504087E+01
(PID.TID 0000.0001) %MON dynstat_salt_sd              =   2.7621874540903E-01
(PID.TID 0000.0001) %MON dynstat_salt_del2            =   2.0099427871086E-06
(PID.TID 0000.0001) %MON advcfl_uvel_max              =   4.9808936165094E-03
(PID.TID 0000.0001) %MON advcfl_vvel_max              =   3.3735066360300E-03
(PID.TID 0000.0001) %MON advcfl_wvel_max              =   9.1520401361195E-03
(PID.TID 0000.0001) %MON advcfl_W_hf_max              =   9.1520401361195E-03
(PID.TID 0000.0001) %MON pe_b_mean                    =  -8.2964763141704E-01
(PID.TID 0000.0001) %MON ke_max                       =   1.0103283087126E-03
(PID.TID 0000.0001) %MON ke_mean                      =   1.3061428690573E-06
(PID.TID 0000.0001) %MON ke_vol                       =   4.2724670678489E+12
(PID.TID 0000.0001) // =======================================================
(PID.TID 0000.0001) // End MONITOR dynamic field statistics
(PID.TID 0000.0001) // =======================================================
(PID.TID 0000.0001) // =======================================================
(PID.TID 0000.0001) // Begin OBCS MONITOR field statistics
(PID.TID 0000.0001) // =======================================================
(PID.TID 0000.0001) %MON obc_N_vVel_max               =   1.4895689857781E-05
(PID.TID 0000.0001) %MON obc_N_vVel_min               =   1.4895689857781E-05
(PID.TID 0000.0001) %MON obc_N_vVel_mean              =   1.4895689857781E-05
(PID.TID 0000.0001) %MON obc_N_vVel_sd                =  -7.2895291481236E-24
(PID.TID 0000.0001) %MON obc_N_vVel_Int               =   9.8311553061353E+02
(PID.TID 0000.0001) // =======================================================
(PID.TID 0000.0001) // End OBCS MONITOR field statistics
(PID.TID 0000.0001) // =======================================================
 cg2d: Sum(rhs),rhsMax =   4.50758909529317E+00  2.99958433892344E+02
(PID.TID 0000.0001)      cg2d_init_res =   9.87814812492037E-06
(PID.TID 0000.0001)      cg2d_iters(min,last) =      -1      84
(PID.TID 0000.0001)      cg2d_last_res =   9.02508289349854E-12
(PID.TID 0000.0001) // =======================================================
(PID.TID 0000.0001) // Begin MONITOR dynamic field statistics
(PID.TID 0000.0001) // =======================================================
(PID.TID 0000.0001) %MON time_tsnumber                =                  1370
(PID.TID 0000.0001) %MON time_secondsf                =   1.3700000000000E+05
(PID.TID 0000.0001) %MON dynstat_eta_max              =   5.7993326044656E+00
(PID.TID 0000.0001) %MON dynstat_eta_min              =  -1.4190895979023E+01
(PID.TID 0000.0001) %MON dynstat_eta_mean             =  -2.5038691956562E+00
(PID.TID 0000.0001) %MON dynstat_eta_sd               =   4.9499915373919E+00
(PID.TID 0000.0001) %MON dynstat_eta_del2             =   2.0716387873196E-01
(PID.TID 0000.0001) %MON dynstat_uvel_max             =   1.0886954388232E-02
(PID.TID 0000.0001) %MON dynstat_uvel_min             =  -4.9918211921877E-02
(PID.TID 0000.0001) %MON dynstat_uvel_mean            =  -1.0758417074246E-07
(PID.TID 0000.0001) %MON dynstat_uvel_sd              =   1.4372250758009E-03
(PID.TID 0000.0001) %MON dynstat_uvel_del2            =   2.1567219107310E-06
(PID.TID 0000.0001) %MON dynstat_vvel_max             =   3.3785441702249E-02
(PID.TID 0000.0001) %MON dynstat_vvel_min             =  -1.6770468845941E-02
(PID.TID 0000.0001) %MON dynstat_vvel_mean            =   1.5165402038446E-05
(PID.TID 0000.0001) %MON dynstat_vvel_sd              =   7.7378583359760E-04
(PID.TID 0000.0001) %MON dynstat_vvel_del2            =   1.5986736954333E-06
(PID.TID 0000.0001) %MON dynstat_wvel_max             =   1.8335926714952E-03
(PID.TID 0000.0001) %MON dynstat_wvel_min             =  -1.7700423549541E-03
(PID.TID 0000.0001) %MON dynstat_wvel_mean            =   7.0959964645561E-09
(PID.TID 0000.0001) %MON dynstat_wvel_sd              =   2.9526704142727E-05
(PID.TID 0000.0001) %MON dynstat_wvel_del2            =   1.1912672079559E-07
(PID.TID 0000.0001) %MON dynstat_theta_max            =   1.2000000000000E+00
(PID.TID 0000.0001) %MON dynstat_theta_min            =  -1.0000000000000E+00
(PID.TID 0000.0001) %MON dynstat_theta_mean           =   5.6838209583997E-01
(PID.TID 0000.0001) %MON dynstat_theta_sd             =   8.6819523533115E-01
(PID.TID 0000.0001) %MON dynstat_theta_del2           =   5.0842056684596E-06
(PID.TID 0000.0001) %MON dynstat_salt_max             =   3.4700000000000E+01
(PID.TID 0000.0001) %MON dynstat_salt_min             =   3.4000000000000E+01
(PID.TID 0000.0001) %MON dynstat_salt_mean            =   3.4498966917928E+01
(PID.TID 0000.0001) %MON dynstat_salt_sd              =   2.7621844862535E-01
(PID.TID 0000.0001) %MON dynstat_salt_del2            =   2.0138194191033E-06
(PID.TID 0000.0001) %MON advcfl_uvel_max              =   4.9918211921877E-03
(PID.TID 0000.0001) %MON advcfl_vvel_max              =   3.3785441702249E-03
(PID.TID 0000.0001) %MON advcfl_wvel_max              =   9.1679633574762E-03
(PID.TID 0000.0001) %MON advcfl_W_hf_max              =   9.1679633574762E-03
(PID.TID 0000.0001) %MON pe_b_mean                    =  -8.2964823408875E-01
(PID.TID 0000.0001) %MON ke_max                       =   1.0151955905029E-03
(PID.TID 0000.0001) %MON ke_mean                      =   1.3118066335462E-06
(PID.TID 0000.0001) %MON ke_vol                       =   4.2724670423011E+12
(PID.TID 0000.0001) // =======================================================
(PID.TID 0000.0001) // End MONITOR dynamic field statistics
(PID.TID 0000.0001) // =======================================================
(PID.TID 0000.0001) // =======================================================
(PID.TID 0000.0001) // Begin OBCS MONITOR field statistics
(PID.TID 0000.0001) // =======================================================
(PID.TID 0000.0001) %MON obc_N_vVel_max               =   1.4881085946297E-05
(PID.TID 0000.0001) %MON obc_N_vVel_min               =   1.4881085946297E-05
(PID.TID 0000.0001) %MON obc_N_vVel_mean              =   1.4881085946297E-05
(PID.TID 0000.0001) %MON obc_N_vVel_sd                =  -3.6189151799195E-24
(PID.TID 0000.0001) %MON obc_N_vVel_Int               =   9.8215167245559E+02
(PID.TID 0000.0001) // =======================================================
(PID.TID 0000.0001) // End OBCS MONITOR field statistics
(PID.TID 0000.0001) // =======================================================
 cg2d: Sum(rhs),rhsMax =   4.50759559026312E+00  2.99958507902355E+02
(PID.TID 0000.0001)      cg2d_init_res =   9.88722454071250E-06
(PID.TID 0000.0001)      cg2d_iters(min,last) =      -1      84
(PID.TID 0000.0001)      cg2d_last_res =   9.03703997524744E-12
(PID.TID 0000.0001) // =======================================================
(PID.TID 0000.0001) // Begin MONITOR dynamic field statistics
(PID.TID 0000.0001) // =======================================================
(PID.TID 0000.0001) %MON time_tsnumber                =                  1371
(PID.TID 0000.0001) %MON time_secondsf                =   1.3710000000000E+05
(PID.TID 0000.0001) %MON dynstat_eta_max              =   5.7993563452201E+00
(PID.TID 0000.0001) %MON dynstat_eta_min              =  -1.4190925599828E+01
(PID.TID 0000.0001) %MON dynstat_eta_mean             =  -2.5038734212640E+00
(PID.TID 0000.0001) %MON dynstat_eta_sd               =   4.9499934484220E+00
(PID.TID 0000.0001) %MON dynstat_eta_del2             =   2.0716392820140E-01
(PID.TID 0000.0001) %MON dynstat_uvel_max             =   1.0912557704300E-02
(PID.TID 0000.0001) %MON dynstat_uvel_min             =  -5.0027613017426E-02
(PID.TID 0000.0001) %MON dynstat_uvel_mean            =  -1.0757497462407E-07
(PID.TID 0000.0001) %MON dynstat_uvel_sd              =   1.4404351794256E-03
(PID.TID 0000.0001) %MON dynstat_uvel_del2            =   2.1619568769068E-06
(PID.TID 0000.0001) %MON dynstat_vvel_max             =   3.3835801475374E-02
(PID.TID 0000.0001) %MON dynstat_vvel_min             =  -1.6811710014036E-02
(PID.TID 0000.0001) %MON dynstat_vvel_mean            =   1.5149331208718E-05
(PID.TID 0000.0001) %MON dynstat_vvel_sd              =   7.7528157493422E-04
(PID.TID 0000.0001) %MON dynstat_vvel_del2            =   1.6018556936823E-06
(PID.TID 0000.0001) %MON dynstat_wvel_max             =   1.8367774744260E-03
(PID.TID 0000.0001) %MON dynstat_wvel_min             =  -1.7732357951898E-03
(PID.TID 0000.0001) %MON dynstat_wvel_mean            =   7.0808873816724E-09
(PID.TID 0000.0001) %MON dynstat_wvel_sd              =   2.9582445646433E-05
(PID.TID 0000.0001) %MON dynstat_wvel_del2            =   1.1933982148915E-07
(PID.TID 0000.0001) %MON dynstat_theta_max            =   1.2000000000000E+00
(PID.TID 0000.0001) %MON dynstat_theta_min            =  -1.0000000000000E+00
(PID.TID 0000.0001) %MON dynstat_theta_mean           =   5.6838062889827E-01
(PID.TID 0000.0001) %MON dynstat_theta_sd             =   8.6819445985642E-01
(PID.TID 0000.0001) %MON dynstat_theta_del2           =   5.0939709347752E-06
(PID.TID 0000.0001) %MON dynstat_salt_max             =   3.4700000000000E+01
(PID.TID 0000.0001) %MON dynstat_salt_min             =   3.4000000000000E+01
(PID.TID 0000.0001) %MON dynstat_salt_mean            =   3.4498966330694E+01
(PID.TID 0000.0001) %MON dynstat_salt_sd              =   2.7621815140820E-01
(PID.TID 0000.0001) %MON dynstat_salt_del2            =   2.0177040541711E-06
(PID.TID 0000.0001) %MON advcfl_uvel_max              =   5.0027613017426E-03
(PID.TID 0000.0001) %MON advcfl_vvel_max              =   3.3835801475374E-03
(PID.TID 0000.0001) %MON advcfl_wvel_max              =   9.1838873721301E-03
(PID.TID 0000.0001) %MON advcfl_W_hf_max              =   9.1838873721301E-03
(PID.TID 0000.0001) %MON pe_b_mean                    =  -8.2964882517822E-01
(PID.TID 0000.0001) %MON ke_max                       =   1.0200812421185E-03
(PID.TID 0000.0001) %MON ke_mean                      =   1.3174920810916E-06
(PID.TID 0000.0001) %MON ke_vol                       =   4.2724670169778E+12
(PID.TID 0000.0001) // =======================================================
(PID.TID 0000.0001) // End MONITOR dynamic field statistics
(PID.TID 0000.0001) // =======================================================
(PID.TID 0000.0001) // =======================================================
(PID.TID 0000.0001) // Begin OBCS MONITOR field statistics
(PID.TID 0000.0001) // =======================================================
(PID.TID 0000.0001) %MON obc_N_vVel_max               =   1.4866709917647E-05
(PID.TID 0000.0001) %MON obc_N_vVel_min               =   1.4866709917647E-05
(PID.TID 0000.0001) %MON obc_N_vVel_mean              =   1.4866709917647E-05
(PID.TID 0000.0001) %MON obc_N_vVel_sd                =   2.1024382032132E-12
(PID.TID 0000.0001) %MON obc_N_vVel_Int               =   9.8120285456471E+02
(PID.TID 0000.0001) // =======================================================
(PID.TID 0000.0001) // End OBCS MONITOR field statistics
(PID.TID 0000.0001) // =======================================================
 cg2d: Sum(rhs),rhsMax =   4.50760202107813E+00  2.99958581743655E+02
(PID.TID 0000.0001)      cg2d_init_res =   9.89711624361375E-06
(PID.TID 0000.0001)      cg2d_iters(min,last) =      -1      84
(PID.TID 0000.0001)      cg2d_last_res =   9.05031171058255E-12
(PID.TID 0000.0001) // =======================================================
(PID.TID 0000.0001) // Begin MONITOR dynamic field statistics
(PID.TID 0000.0001) // =======================================================
(PID.TID 0000.0001) %MON time_tsnumber                =                  1372
(PID.TID 0000.0001) %MON time_secondsf                =   1.3720000000000E+05
(PID.TID 0000.0001) %MON dynstat_eta_max              =   5.7993802077030E+00
(PID.TID 0000.0001) %MON dynstat_eta_min              =  -1.4190955199417E+01
(PID.TID 0000.0001) %MON dynstat_eta_mean             =  -2.5038776098286E+00
(PID.TID 0000.0001) %MON dynstat_eta_sd               =   4.9499953488683E+00
(PID.TID 0000.0001) %MON dynstat_eta_del2             =   2.0716397774400E-01
(PID.TID 0000.0001) %MON dynstat_uvel_max             =   1.0938205890408E-02
(PID.TID 0000.0001) %MON dynstat_uvel_min             =  -5.0137139092425E-02
(PID.TID 0000.0001) %MON dynstat_uvel_mean            =  -1.0758197769572E-07
(PID.TID 0000.0001) %MON dynstat_uvel_sd              =   1.4436515562009E-03
(PID.TID 0000.0001) %MON dynstat_uvel_del2            =   2.1672046409665E-06
(PID.TID 0000.0001) %MON dynstat_vvel_max             =   3.3886145507510E-02
(PID.TID 0000.0001) %MON dynstat_vvel_min             =  -1.6853037818374E-02
(PID.TID 0000.0001) %MON dynstat_vvel_mean            =   1.5134069471196E-05
(PID.TID 0000.0001) %MON dynstat_vvel_sd              =   7.7677798249442E-04
(PID.TID 0000.0001) %MON dynstat_vvel_del2            =   1.6050405232165E-06
(PID.TID 0000.0001) %MON dynstat_wvel_max             =   1.8399624158507E-03
(PID.TID 0000.0001) %MON dynstat_wvel_min             =  -1.7764305198349E-03
(PID.TID 0000.0001) %MON dynstat_wvel_mean            =   7.0691794786410E-09
(PID.TID 0000.0001) %MON dynstat_wvel_sd              =   2.9634234006488E-05
(PID.TID 0000.0001) %MON dynstat_wvel_del2            =   1.1953998502721E-07
(PID.TID 0000.0001) %MON dynstat_theta_max            =   1.2000000000000E+00
(PID.TID 0000.0001) %MON dynstat_theta_min            =  -1.0000000000000E+00
(PID.TID 0000.0001) %MON dynstat_theta_mean           =   5.6837915924371E-01
(PID.TID 0000.0001) %MON dynstat_theta_sd             =   8.6819368322939E-01
(PID.TID 0000.0001) %MON dynstat_theta_del2           =   5.1037587777085E-06
(PID.TID 0000.0001) %MON dynstat_salt_max             =   3.4700000000000E+01
(PID.TID 0000.0001) %MON dynstat_salt_min             =   3.4000000000000E+01
(PID.TID 0000.0001) %MON dynstat_salt_mean            =   3.4498965742385E+01
(PID.TID 0000.0001) %MON dynstat_salt_sd              =   2.7621785375748E-01
(PID.TID 0000.0001) %MON dynstat_salt_del2            =   2.0215966381330E-06
(PID.TID 0000.0001) %MON advcfl_uvel_max              =   5.0137139092425E-03
(PID.TID 0000.0001) %MON advcfl_vvel_max              =   3.3886145507510E-03
(PID.TID 0000.0001) %MON advcfl_wvel_max              =   9.1998120792533E-03
(PID.TID 0000.0001) %MON advcfl_W_hf_max              =   9.1998120792533E-03
(PID.TID 0000.0001) %MON pe_b_mean                    =  -8.2964940489945E-01
(PID.TID 0000.0001) %MON ke_max                       =   1.0249852971294E-03
(PID.TID 0000.0001) %MON ke_mean                      =   1.3231992730106E-06
(PID.TID 0000.0001) %MON ke_vol                       =   4.2724669918777E+12
(PID.TID 0000.0001) // =======================================================
(PID.TID 0000.0001) // End MONITOR dynamic field statistics
(PID.TID 0000.0001) // =======================================================
(PID.TID 0000.0001) // =======================================================
(PID.TID 0000.0001) // Begin OBCS MONITOR field statistics
(PID.TID 0000.0001) // =======================================================
(PID.TID 0000.0001) %MON obc_N_vVel_max               =   1.4852849638441E-05
(PID.TID 0000.0001) %MON obc_N_vVel_min               =   1.4852849638440E-05
(PID.TID 0000.0001) %MON obc_N_vVel_mean              =   1.4852849638441E-05
(PID.TID 0000.0001) %MON obc_N_vVel_sd                =  -1.9464593789138E-23
(PID.TID 0000.0001) %MON obc_N_vVel_Int               =   9.8028807613709E+02
(PID.TID 0000.0001) // =======================================================
(PID.TID 0000.0001) // End OBCS MONITOR field statistics
(PID.TID 0000.0001) // =======================================================
 cg2d: Sum(rhs),rhsMax =   4.50760838876452E+00  2.99958655448717E+02
(PID.TID 0000.0001)      cg2d_init_res =   9.90786224012815E-06
(PID.TID 0000.0001)      cg2d_iters(min,last) =      -1      84
(PID.TID 0000.0001)      cg2d_last_res =   9.06486563088507E-12
(PID.TID 0000.0001) // =======================================================
(PID.TID 0000.0001) // Begin MONITOR dynamic field statistics
(PID.TID 0000.0001) // =======================================================
(PID.TID 0000.0001) %MON time_tsnumber                =                  1373
(PID.TID 0000.0001) %MON time_secondsf                =   1.3730000000000E+05
(PID.TID 0000.0001) %MON dynstat_eta_max              =   5.7994041897332E+00
(PID.TID 0000.0001) %MON dynstat_eta_min              =  -1.4190984779426E+01
(PID.TID 0000.0001) %MON dynstat_eta_mean             =  -2.5038817621910E+00
(PID.TID 0000.0001) %MON dynstat_eta_sd               =   4.9499972392476E+00
(PID.TID 0000.0001) %MON dynstat_eta_del2             =   2.0716402736044E-01
(PID.TID 0000.0001) %MON dynstat_uvel_max             =   1.0963898961624E-02
(PID.TID 0000.0001) %MON dynstat_uvel_min             =  -5.0246789777725E-02
(PID.TID 0000.0001) %MON dynstat_uvel_mean            =  -1.0760428243283E-07
(PID.TID 0000.0001) %MON dynstat_uvel_sd              =   1.4468742092096E-03
(PID.TID 0000.0001) %MON dynstat_uvel_del2            =   2.1724652312512E-06
(PID.TID 0000.0001) %MON dynstat_vvel_max             =   3.3936473623058E-02
(PID.TID 0000.0001) %MON dynstat_vvel_min             =  -1.6894452295247E-02
(PID.TID 0000.0001) %MON dynstat_vvel_mean            =   1.5119919760384E-05
(PID.TID 0000.0001) %MON dynstat_vvel_sd              =   7.7827508585612E-04
(PID.TID 0000.0001) %MON dynstat_vvel_del2            =   1.6082283130974E-06
(PID.TID 0000.0001) %MON dynstat_wvel_max             =   1.8431474756076E-03
(PID.TID 0000.0001) %MON dynstat_wvel_min             =  -1.7796265257782E-03
(PID.TID 0000.0001) %MON dynstat_wvel_mean            =   7.0611002585746E-09
(PID.TID 0000.0001) %MON dynstat_wvel_sd              =   2.9682075385127E-05
(PID.TID 0000.0001) %MON dynstat_wvel_del2            =   1.1972738353428E-07
(PID.TID 0000.0001) %MON dynstat_theta_max            =   1.2000000000000E+00
(PID.TID 0000.0001) %MON dynstat_theta_min            =  -1.0000000000000E+00
(PID.TID 0000.0001) %MON dynstat_theta_mean           =   5.6837768687243E-01
(PID.TID 0000.0001) %MON dynstat_theta_sd             =   8.6819290544979E-01
(PID.TID 0000.0001) %MON dynstat_theta_del2           =   5.1135688223206E-06
(PID.TID 0000.0001) %MON dynstat_salt_max             =   3.4700000000000E+01
(PID.TID 0000.0001) %MON dynstat_salt_min             =   3.4000000000000E+01
(PID.TID 0000.0001) %MON dynstat_salt_mean            =   3.4498965152998E+01
(PID.TID 0000.0001) %MON dynstat_salt_sd              =   2.7621755567326E-01
(PID.TID 0000.0001) %MON dynstat_salt_del2            =   2.0254970548061E-06
(PID.TID 0000.0001) %MON advcfl_uvel_max              =   5.0246789777725E-03
(PID.TID 0000.0001) %MON advcfl_vvel_max              =   3.3936473623058E-03
(PID.TID 0000.0001) %MON advcfl_wvel_max              =   9.2157373780380E-03
(PID.TID 0000.0001) %MON advcfl_W_hf_max              =   9.2157373780380E-03
(PID.TID 0000.0001) %MON pe_b_mean                    =  -8.2964997354171E-01
(PID.TID 0000.0001) %MON ke_max                       =   1.0299077888269E-03
(PID.TID 0000.0001) %MON ke_mean                      =   1.3289283035257E-06
(PID.TID 0000.0001) %MON ke_vol                       =   4.2724669669976E+12
(PID.TID 0000.0001) // =======================================================
(PID.TID 0000.0001) // End MONITOR dynamic field statistics
(PID.TID 0000.0001) // =======================================================
(PID.TID 0000.0001) // =======================================================
(PID.TID 0000.0001) // Begin OBCS MONITOR field statistics
(PID.TID 0000.0001) // =======================================================
(PID.TID 0000.0001) %MON obc_N_vVel_max               =   1.4839780607242E-05
(PID.TID 0000.0001) %MON obc_N_vVel_min               =   1.4839780607242E-05
(PID.TID 0000.0001) %MON obc_N_vVel_mean              =   1.4839780607242E-05
(PID.TID 0000.0001) %MON obc_N_vVel_sd                =   2.0145358970091E-12
(PID.TID 0000.0001) %MON obc_N_vVel_Int               =   9.7942552007794E+02
(PID.TID 0000.0001) // =======================================================
(PID.TID 0000.0001) // End OBCS MONITOR field statistics
(PID.TID 0000.0001) // =======================================================
 cg2d: Sum(rhs),rhsMax =   4.50761469483926E+00  2.99958729051688E+02
(PID.TID 0000.0001)      cg2d_init_res =   9.91949440045869E-06
(PID.TID 0000.0001)      cg2d_iters(min,last) =      -1      84
(PID.TID 0000.0001)      cg2d_last_res =   9.08062615493665E-12
(PID.TID 0000.0001) // =======================================================
(PID.TID 0000.0001) // Begin MONITOR dynamic field statistics
(PID.TID 0000.0001) // =======================================================
(PID.TID 0000.0001) %MON time_tsnumber                =                  1374
(PID.TID 0000.0001) %MON time_secondsf                =   1.3740000000000E+05
(PID.TID 0000.0001) %MON dynstat_eta_max              =   5.7994282885950E+00
(PID.TID 0000.0001) %MON dynstat_eta_min              =  -1.4191014341775E+01
(PID.TID 0000.0001) %MON dynstat_eta_mean             =  -2.5038858794791E+00
(PID.TID 0000.0001) %MON dynstat_eta_sd               =   4.9499991201503E+00
(PID.TID 0000.0001) %MON dynstat_eta_del2             =   2.0716407705140E-01
(PID.TID 0000.0001) %MON dynstat_uvel_max             =   1.0989636934962E-02
(PID.TID 0000.0001) %MON dynstat_uvel_min             =  -5.0356564694115E-02
(PID.TID 0000.0001) %MON dynstat_uvel_mean            =  -1.0764068849683E-07
(PID.TID 0000.0001) %MON dynstat_uvel_sd              =   1.4501031409547E-03
(PID.TID 0000.0001) %MON dynstat_uvel_del2            =   2.1777386759247E-06
(PID.TID 0000.0001) %MON dynstat_vvel_max             =   3.3986785641777E-02
(PID.TID 0000.0001) %MON dynstat_vvel_min             =  -1.6935953484833E-02
(PID.TID 0000.0001) %MON dynstat_vvel_mean            =   1.5107160892247E-05
(PID.TID 0000.0001) %MON dynstat_vvel_sd              =   7.7977295773554E-04
(PID.TID 0000.0001) %MON dynstat_vvel_del2            =   1.6114193581365E-06
(PID.TID 0000.0001) %MON dynstat_wvel_max             =   1.8463326335200E-03
(PID.TID 0000.0001) %MON dynstat_wvel_min             =  -1.7828238095395E-03
(PID.TID 0000.0001) %MON dynstat_wvel_mean            =   7.0568046833828E-09
(PID.TID 0000.0001) %MON dynstat_wvel_sd              =   2.9726123597942E-05
(PID.TID 0000.0001) %MON dynstat_wvel_del2            =   1.1990296773063E-07
(PID.TID 0000.0001) %MON dynstat_theta_max            =   1.2000000000000E+00
(PID.TID 0000.0001) %MON dynstat_theta_min            =  -1.0000000000000E+00
(PID.TID 0000.0001) %MON dynstat_theta_mean           =   5.6837621178098E-01
(PID.TID 0000.0001) %MON dynstat_theta_sd             =   8.6819212651844E-01
(PID.TID 0000.0001) %MON dynstat_theta_del2           =   5.1233998613714E-06
(PID.TID 0000.0001) %MON dynstat_salt_max             =   3.4700000000000E+01
(PID.TID 0000.0001) %MON dynstat_salt_min             =   3.4000000000000E+01
(PID.TID 0000.0001) %MON dynstat_salt_mean            =   3.4498964562533E+01
(PID.TID 0000.0001) %MON dynstat_salt_sd              =   2.7621725715600E-01
(PID.TID 0000.0001) %MON dynstat_salt_del2            =   2.0294051171735E-06
(PID.TID 0000.0001) %MON advcfl_uvel_max              =   5.0356564694115E-03
(PID.TID 0000.0001) %MON advcfl_vvel_max              =   3.3986785641777E-03
(PID.TID 0000.0001) %MON advcfl_wvel_max              =   9.2316631676001E-03
(PID.TID 0000.0001) %MON advcfl_W_hf_max              =   9.2316631676001E-03
(PID.TID 0000.0001) %MON pe_b_mean                    =  -8.2965053146298E-01
(PID.TID 0000.0001) %MON ke_max                       =   1.0348487502099E-03
(PID.TID 0000.0001) %MON ke_mean                      =   1.3346792996282E-06
(PID.TID 0000.0001) %MON ke_vol                       =   4.2724669423326E+12
(PID.TID 0000.0001) // =======================================================
(PID.TID 0000.0001) // End MONITOR dynamic field statistics
(PID.TID 0000.0001) // =======================================================
(PID.TID 0000.0001) // =======================================================
(PID.TID 0000.0001) // Begin OBCS MONITOR field statistics
(PID.TID 0000.0001) // =======================================================
(PID.TID 0000.0001) %MON obc_N_vVel_max               =   1.4827760641854E-05
(PID.TID 0000.0001) %MON obc_N_vVel_min               =   1.4827760641853E-05
(PID.TID 0000.0001) %MON obc_N_vVel_mean              =   1.4827760641853E-05
(PID.TID 0000.0001) %MON obc_N_vVel_sd                =  -1.0339757656913E-25
(PID.TID 0000.0001) %MON obc_N_vVel_Int               =   9.7863220236232E+02
(PID.TID 0000.0001) // =======================================================
(PID.TID 0000.0001) // End OBCS MONITOR field statistics
(PID.TID 0000.0001) // =======================================================
 cg2d: Sum(rhs),rhsMax =   4.50762094127211E+00  2.99958802587721E+02
(PID.TID 0000.0001)      cg2d_init_res =   9.93203656391093E-06
(PID.TID 0000.0001)      cg2d_iters(min,last) =      -1      84
(PID.TID 0000.0001)      cg2d_last_res =   9.09746347779446E-12
(PID.TID 0000.0001) // =======================================================
(PID.TID 0000.0001) // Begin MONITOR dynamic field statistics
(PID.TID 0000.0001) // =======================================================
(PID.TID 0000.0001) %MON time_tsnumber                =                  1375
(PID.TID 0000.0001) %MON time_secondsf                =   1.3750000000000E+05
(PID.TID 0000.0001) %MON dynstat_eta_max              =   5.7994525011325E+00
(PID.TID 0000.0001) %MON dynstat_eta_min              =  -1.4191043888660E+01
(PID.TID 0000.0001) %MON dynstat_eta_mean             =  -2.5038899630802E+00
(PID.TID 0000.0001) %MON dynstat_eta_sd               =   4.9500009922317E+00
(PID.TID 0000.0001) %MON dynstat_eta_del2             =   2.0716412681776E-01
(PID.TID 0000.0001) %MON dynstat_uvel_max             =   1.1015419829585E-02
(PID.TID 0000.0001) %MON dynstat_uvel_min             =  -5.0466463451887E-02
(PID.TID 0000.0001) %MON dynstat_uvel_mean            =  -1.0768972399124E-07
(PID.TID 0000.0001) %MON dynstat_uvel_sd              =   1.4533383533663E-03
(PID.TID 0000.0001) %MON dynstat_uvel_del2            =   2.1830250034370E-06
(PID.TID 0000.0001) %MON dynstat_vvel_max             =   3.4037081377777E-02
(PID.TID 0000.0001) %MON dynstat_vvel_min             =  -1.6977541432700E-02
(PID.TID 0000.0001) %MON dynstat_vvel_mean            =   1.5096042289061E-05
(PID.TID 0000.0001) %MON dynstat_vvel_sd              =   7.8127171189969E-04
(PID.TID 0000.0001) %MON dynstat_vvel_del2            =   1.6146140932226E-06
(PID.TID 0000.0001) %MON dynstat_wvel_max             =   1.8495178694091E-03
(PID.TID 0000.0001) %MON dynstat_wvel_min             =  -1.7860223672002E-03
(PID.TID 0000.0001) %MON dynstat_wvel_mean            =   7.0563723400847E-09
(PID.TID 0000.0001) %MON dynstat_wvel_sd              =   2.9766667173639E-05
(PID.TID 0000.0001) %MON dynstat_wvel_del2            =   1.2006837537086E-07
(PID.TID 0000.0001) %MON dynstat_theta_max            =   1.2000000000000E+00
(PID.TID 0000.0001) %MON dynstat_theta_min            =  -1.0000000000000E+00
(PID.TID 0000.0001) %MON dynstat_theta_mean           =   5.6837473396613E-01
(PID.TID 0000.0001) %MON dynstat_theta_sd             =   8.6819134643709E-01
(PID.TID 0000.0001) %MON dynstat_theta_del2           =   5.1332515583323E-06
(PID.TID 0000.0001) %MON dynstat_salt_max             =   3.4700000000000E+01
(PID.TID 0000.0001) %MON dynstat_salt_min             =   3.4000000000000E+01
(PID.TID 0000.0001) %MON dynstat_salt_mean            =   3.4498963970986E+01
(PID.TID 0000.0001) %MON dynstat_salt_sd              =   2.7621695820613E-01
(PID.TID 0000.0001) %MON dynstat_salt_del2            =   2.0333205842243E-06
(PID.TID 0000.0001) %MON advcfl_uvel_max              =   5.0466463451887E-03
(PID.TID 0000.0001) %MON advcfl_vvel_max              =   3.4037081377777E-03
(PID.TID 0000.0001) %MON advcfl_wvel_max              =   9.2475893470457E-03
(PID.TID 0000.0001) %MON advcfl_W_hf_max              =   9.2475893470457E-03
(PID.TID 0000.0001) %MON pe_b_mean                    =  -8.2965107908200E-01
(PID.TID 0000.0001) %MON ke_max                       =   1.0398082139744E-03
(PID.TID 0000.0001) %MON ke_mean                      =   1.3404524196962E-06
(PID.TID 0000.0001) %MON ke_vol                       =   4.2724669178759E+12
(PID.TID 0000.0001) // =======================================================
(PID.TID 0000.0001) // End MONITOR dynamic field statistics
(PID.TID 0000.0001) // =======================================================
(PID.TID 0000.0001) // =======================================================
(PID.TID 0000.0001) // Begin OBCS MONITOR field statistics
(PID.TID 0000.0001) // =======================================================
(PID.TID 0000.0001) %MON obc_N_vVel_max               =   1.4817024977773E-05
(PID.TID 0000.0001) %MON obc_N_vVel_min               =   1.4817024977773E-05
(PID.TID 0000.0001) %MON obc_N_vVel_mean              =   1.4817024977773E-05
(PID.TID 0000.0001) %MON obc_N_vVel_sd                =  -1.4294714960682E-23
(PID.TID 0000.0001) %MON obc_N_vVel_Int               =   9.7792364853301E+02
(PID.TID 0000.0001) // =======================================================
(PID.TID 0000.0001) // End OBCS MONITOR field statistics
(PID.TID 0000.0001) // =======================================================
 cg2d: Sum(rhs),rhsMax =   4.50762713044486E+00  2.99958876092317E+02
(PID.TID 0000.0001)      cg2d_init_res =   9.94548175016150E-06
(PID.TID 0000.0001)      cg2d_iters(min,last) =      -1      84
(PID.TID 0000.0001)      cg2d_last_res =   9.11530579326715E-12
(PID.TID 0000.0001) // =======================================================
(PID.TID 0000.0001) // Begin MONITOR dynamic field statistics
(PID.TID 0000.0001) // =======================================================
(PID.TID 0000.0001) %MON time_tsnumber                =                  1376
(PID.TID 0000.0001) %MON time_secondsf                =   1.3760000000000E+05
(PID.TID 0000.0001) %MON dynstat_eta_max              =   5.7994768237766E+00
(PID.TID 0000.0001) %MON dynstat_eta_min              =  -1.4191073422486E+01
(PID.TID 0000.0001) %MON dynstat_eta_mean             =  -2.5038940146138E+00
(PID.TID 0000.0001) %MON dynstat_eta_sd               =   4.9500028561904E+00
(PID.TID 0000.0001) %MON dynstat_eta_del2             =   2.0716417666014E-01
(PID.TID 0000.0001) %MON dynstat_uvel_max             =   1.1041247666679E-02
(PID.TID 0000.0001) %MON dynstat_uvel_min             =  -5.0576485650631E-02
(PID.TID 0000.0001) %MON dynstat_uvel_mean            =  -1.0774968030576E-07
(PID.TID 0000.0001) %MON dynstat_uvel_sd              =   1.4565798478594E-03
(PID.TID 0000.0001) %MON dynstat_uvel_del2            =   2.1883242417347E-06
(PID.TID 0000.0001) %MON dynstat_vvel_max             =   3.4087360638369E-02
(PID.TID 0000.0001) %MON dynstat_vvel_min             =  -1.7019216190391E-02
(PID.TID 0000.0001) %MON dynstat_vvel_mean            =   1.5086779317763E-05
(PID.TID 0000.0001) %MON dynstat_vvel_sd              =   7.8277149964504E-04
(PID.TID 0000.0001) %MON dynstat_vvel_del2            =   1.6178130563337E-06
(PID.TID 0000.0001) %MON dynstat_wvel_max             =   1.8527031630964E-03
(PID.TID 0000.0001) %MON dynstat_wvel_min             =  -1.7892221961541E-03
(PID.TID 0000.0001) %MON dynstat_wvel_mean            =   7.0598071904239E-09
(PID.TID 0000.0001) %MON dynstat_wvel_sd              =   2.9804108980361E-05
(PID.TID 0000.0001) %MON dynstat_wvel_del2            =   1.2022579215375E-07
(PID.TID 0000.0001) %MON dynstat_theta_max            =   1.2000000000000E+00
(PID.TID 0000.0001) %MON dynstat_theta_min            =  -1.0000000000000E+00
(PID.TID 0000.0001) %MON dynstat_theta_mean           =   5.6837325342512E-01
(PID.TID 0000.0001) %MON dynstat_theta_sd             =   8.6819056520776E-01
(PID.TID 0000.0001) %MON dynstat_theta_del2           =   5.1431219402871E-06
(PID.TID 0000.0001) %MON dynstat_salt_max             =   3.4700000000000E+01
(PID.TID 0000.0001) %MON dynstat_salt_min             =   3.4000000000000E+01
(PID.TID 0000.0001) %MON dynstat_salt_mean            =   3.4498963378358E+01
(PID.TID 0000.0001) %MON dynstat_salt_sd              =   2.7621665882433E-01
(PID.TID 0000.0001) %MON dynstat_salt_del2            =   2.0372431778386E-06
(PID.TID 0000.0001) %MON advcfl_uvel_max              =   5.0576485650631E-03
(PID.TID 0000.0001) %MON advcfl_vvel_max              =   3.4087360638369E-03
(PID.TID 0000.0001) %MON advcfl_wvel_max              =   9.2635158154820E-03
(PID.TID 0000.0001) %MON advcfl_W_hf_max              =   9.2635158154820E-03
(PID.TID 0000.0001) %MON pe_b_mean                    =  -8.2965161686947E-01
(PID.TID 0000.0001) %MON ke_max                       =   1.0447862125005E-03
(PID.TID 0000.0001) %MON ke_mean                      =   1.3462478510576E-06
(PID.TID 0000.0001) %MON ke_vol                       =   4.2724668936193E+12
(PID.TID 0000.0001) // =======================================================
(PID.TID 0000.0001) // End MONITOR dynamic field statistics
(PID.TID 0000.0001) // =======================================================
(PID.TID 0000.0001) // =======================================================
(PID.TID 0000.0001) // Begin OBCS MONITOR field statistics
(PID.TID 0000.0001) // =======================================================
(PID.TID 0000.0001) %MON obc_N_vVel_max               =   1.4807781819136E-05
(PID.TID 0000.0001) %MON obc_N_vVel_min               =   1.4807781819135E-05
(PID.TID 0000.0001) %MON obc_N_vVel_mean              =   1.4807781819135E-05
(PID.TID 0000.0001) %MON obc_N_vVel_sd                =   7.8764551634271E-13
(PID.TID 0000.0001) %MON obc_N_vVel_Int               =   9.7731360006294E+02
(PID.TID 0000.0001) // =======================================================
(PID.TID 0000.0001) // End OBCS MONITOR field statistics
(PID.TID 0000.0001) // =======================================================
 cg2d: Sum(rhs),rhsMax =   4.50763326510053E+00  2.99958949600629E+02
(PID.TID 0000.0001)      cg2d_init_res =   9.95984783884481E-06
(PID.TID 0000.0001)      cg2d_iters(min,last) =      -1      84
(PID.TID 0000.0001)      cg2d_last_res =   9.13403053932049E-12
(PID.TID 0000.0001) // =======================================================
(PID.TID 0000.0001) // Begin MONITOR dynamic field statistics
(PID.TID 0000.0001) // =======================================================
(PID.TID 0000.0001) %MON time_tsnumber                =                  1377
(PID.TID 0000.0001) %MON time_secondsf                =   1.3770000000000E+05
(PID.TID 0000.0001) %MON dynstat_eta_max              =   5.7995012526552E+00
(PID.TID 0000.0001) %MON dynstat_eta_min              =  -1.4191102945834E+01
(PID.TID 0000.0001) %MON dynstat_eta_mean             =  -2.5038980358971E+00
(PID.TID 0000.0001) %MON dynstat_eta_sd               =   4.9500047127605E+00
(PID.TID 0000.0001) %MON dynstat_eta_del2             =   2.0716422657933E-01
(PID.TID 0000.0001) %MON dynstat_uvel_max             =   1.1067120469990E-02
(PID.TID 0000.0001) %MON dynstat_uvel_min             =  -5.0686630879035E-02
(PID.TID 0000.0001) %MON dynstat_uvel_mean            =  -1.0781864671908E-07
(PID.TID 0000.0001) %MON dynstat_uvel_sd              =   1.4598276253371E-03
(PID.TID 0000.0001) %MON dynstat_uvel_del2            =   2.1936364194404E-06
(PID.TID 0000.0001) %MON dynstat_vvel_max             =   3.4137623223464E-02
(PID.TID 0000.0001) %MON dynstat_vvel_min             =  -1.7060977816426E-02
(PID.TID 0000.0001) %MON dynstat_vvel_mean            =   1.5079549313831E-05
(PID.TID 0000.0001) %MON dynstat_vvel_sd              =   7.8427250506332E-04
(PID.TID 0000.0001) %MON dynstat_vvel_del2            =   1.6210168450238E-06
(PID.TID 0000.0001) %MON dynstat_wvel_max             =   1.8558884944318E-03
(PID.TID 0000.0001) %MON dynstat_wvel_min             =  -1.7924232935825E-03
(PID.TID 0000.0001) %MON dynstat_wvel_mean            =   7.0670367277476E-09
(PID.TID 0000.0001) %MON dynstat_wvel_sd              =   2.9838940032362E-05
(PID.TID 0000.0001) %MON dynstat_wvel_del2            =   1.2037777494975E-07
(PID.TID 0000.0001) %MON dynstat_theta_max            =   1.2000000000000E+00
(PID.TID 0000.0001) %MON dynstat_theta_min            =  -1.0000000000000E+00
(PID.TID 0000.0001) %MON dynstat_theta_mean           =   5.6837177015560E-01
(PID.TID 0000.0001) %MON dynstat_theta_sd             =   8.6818978283152E-01
(PID.TID 0000.0001) %MON dynstat_theta_del2           =   5.1530102778762E-06
(PID.TID 0000.0001) %MON dynstat_salt_max             =   3.4700000000000E+01
(PID.TID 0000.0001) %MON dynstat_salt_min             =   3.4000000000000E+01
(PID.TID 0000.0001) %MON dynstat_salt_mean            =   3.4498962784647E+01
(PID.TID 0000.0001) %MON dynstat_salt_sd              =   2.7621635901105E-01
(PID.TID 0000.0001) %MON dynstat_salt_del2            =   2.0411725941118E-06
(PID.TID 0000.0001) %MON advcfl_uvel_max              =   5.0686630879035E-03
(PID.TID 0000.0001) %MON advcfl_vvel_max              =   3.4137623223464E-03
(PID.TID 0000.0001) %MON advcfl_wvel_max              =   9.2794424721590E-03
(PID.TID 0000.0001) %MON advcfl_W_hf_max              =   9.2794424721590E-03
(PID.TID 0000.0001) %MON pe_b_mean                    =  -8.2965214533826E-01
(PID.TID 0000.0001) %MON ke_max                       =   1.0497827778466E-03
(PID.TID 0000.0001) %MON ke_mean                      =   1.3520658065021E-06
(PID.TID 0000.0001) %MON ke_vol                       =   4.2724668695532E+12
(PID.TID 0000.0001) // =======================================================
(PID.TID 0000.0001) // End MONITOR dynamic field statistics
(PID.TID 0000.0001) // =======================================================
(PID.TID 0000.0001) // =======================================================
(PID.TID 0000.0001) // Begin OBCS MONITOR field statistics
(PID.TID 0000.0001) // =======================================================
(PID.TID 0000.0001) %MON obc_N_vVel_max               =   1.4800208489924E-05
(PID.TID 0000.0001) %MON obc_N_vVel_min               =   1.4800208489924E-05
(PID.TID 0000.0001) %MON obc_N_vVel_mean              =   1.4800208489924E-05
(PID.TID 0000.0001) %MON obc_N_vVel_sd                =  -9.4867276502175E-24
(PID.TID 0000.0001) %MON obc_N_vVel_Int               =   9.7681376033499E+02
(PID.TID 0000.0001) // =======================================================
(PID.TID 0000.0001) // End OBCS MONITOR field statistics
(PID.TID 0000.0001) // =======================================================
 cg2d: Sum(rhs),rhsMax =   4.50763934828333E+00  2.99959023146830E+02
(PID.TID 0000.0001)      cg2d_init_res =   9.97508481665458E-06
(PID.TID 0000.0001)      cg2d_iters(min,last) =      -1      84
(PID.TID 0000.0001)      cg2d_last_res =   9.15343722439752E-12
(PID.TID 0000.0001) // =======================================================
(PID.TID 0000.0001) // Begin MONITOR dynamic field statistics
(PID.TID 0000.0001) // =======================================================
(PID.TID 0000.0001) %MON time_tsnumber                =                  1378
(PID.TID 0000.0001) %MON time_secondsf                =   1.3780000000000E+05
(PID.TID 0000.0001) %MON dynstat_eta_max              =   5.7995257836515E+00
(PID.TID 0000.0001) %MON dynstat_eta_min              =  -1.4191132461407E+01
(PID.TID 0000.0001) %MON dynstat_eta_mean             =  -2.5039020289061E+00
(PID.TID 0000.0001) %MON dynstat_eta_sd               =   4.9500065626933E+00
(PID.TID 0000.0001) %MON dynstat_eta_del2             =   2.0716427657595E-01
(PID.TID 0000.0001) %MON dynstat_uvel_max             =   1.1093038265880E-02
(PID.TID 0000.0001) %MON dynstat_uvel_min             =  -5.0796898714688E-02
(PID.TID 0000.0001) %MON dynstat_uvel_mean            =  -1.0789455543153E-07
(PID.TID 0000.0001) %MON dynstat_uvel_sd              =   1.4630816862583E-03
(PID.TID 0000.0001) %MON dynstat_uvel_del2            =   2.1989615650457E-06
(PID.TID 0000.0001) %MON dynstat_vvel_max             =   3.4187868924902E-02
(PID.TID 0000.0001) %MON dynstat_vvel_min             =  -1.7102826376904E-02
(PID.TID 0000.0001) %MON dynstat_vvel_mean            =   1.5074488381849E-05
(PID.TID 0000.0001) %MON dynstat_vvel_sd              =   7.8577493946282E-04
(PID.TID 0000.0001) %MON dynstat_vvel_del2            =   1.6242260716222E-06
(PID.TID 0000.0001) %MON dynstat_wvel_max             =   1.8590738432449E-03
(PID.TID 0000.0001) %MON dynstat_wvel_min             =  -1.7956256561534E-03
(PID.TID 0000.0001) %MON dynstat_wvel_mean            =   7.0779152620564E-09
(PID.TID 0000.0001) %MON dynstat_wvel_sd              =   2.9871709569537E-05
(PID.TID 0000.0001) %MON dynstat_wvel_del2            =   1.2052705359005E-07
(PID.TID 0000.0001) %MON dynstat_theta_max            =   1.2000000000000E+00
(PID.TID 0000.0001) %MON dynstat_theta_min            =  -1.0000000000000E+00
(PID.TID 0000.0001) %MON dynstat_theta_mean           =   5.6837028415559E-01
(PID.TID 0000.0001) %MON dynstat_theta_sd             =   8.6818899930767E-01
(PID.TID 0000.0001) %MON dynstat_theta_del2           =   5.1629146937481E-06
(PID.TID 0000.0001) %MON dynstat_salt_max             =   3.4700000000000E+01
(PID.TID 0000.0001) %MON dynstat_salt_min             =   3.4000000000000E+01
(PID.TID 0000.0001) %MON dynstat_salt_mean            =   3.4498962189852E+01
(PID.TID 0000.0001) %MON dynstat_salt_sd              =   2.7621605876599E-01
(PID.TID 0000.0001) %MON dynstat_salt_del2            =   2.0451081550915E-06
(PID.TID 0000.0001) %MON advcfl_uvel_max              =   5.0796898714688E-03
(PID.TID 0000.0001) %MON advcfl_vvel_max              =   3.4187868924902E-03
(PID.TID 0000.0001) %MON advcfl_wvel_max              =   9.2953692162244E-03
(PID.TID 0000.0001) %MON advcfl_W_hf_max              =   9.2953692162244E-03
(PID.TID 0000.0001) %MON pe_b_mean                    =  -8.2965266503275E-01
(PID.TID 0000.0001) %MON ke_max                       =   1.0547979417433E-03
(PID.TID 0000.0001) %MON ke_mean                      =   1.3579065201922E-06
(PID.TID 0000.0001) %MON ke_vol                       =   4.2724668456668E+12
(PID.TID 0000.0001) // =======================================================
(PID.TID 0000.0001) // End MONITOR dynamic field statistics
(PID.TID 0000.0001) // =======================================================
(PID.TID 0000.0001) // =======================================================
(PID.TID 0000.0001) // Begin OBCS MONITOR field statistics
(PID.TID 0000.0001) // =======================================================
(PID.TID 0000.0001) %MON obc_N_vVel_max               =   1.4794448154870E-05
(PID.TID 0000.0001) %MON obc_N_vVel_min               =   1.4794448154870E-05
(PID.TID 0000.0001) %MON obc_N_vVel_mean              =   1.4794448154870E-05
(PID.TID 0000.0001) %MON obc_N_vVel_sd                =  -4.2909994276188E-24
(PID.TID 0000.0001) %MON obc_N_vVel_Int               =   9.7643357822142E+02
(PID.TID 0000.0001) // =======================================================
(PID.TID 0000.0001) // End OBCS MONITOR field statistics
(PID.TID 0000.0001) // =======================================================
 cg2d: Sum(rhs),rhsMax =   4.50764538327486E+00  2.99959096763471E+02
(PID.TID 0000.0001)      cg2d_init_res =   9.99115355103821E-06
(PID.TID 0000.0001)      cg2d_iters(min,last) =      -1      84
(PID.TID 0000.0001)      cg2d_last_res =   9.17338760189122E-12
(PID.TID 0000.0001) // =======================================================
(PID.TID 0000.0001) // Begin MONITOR dynamic field statistics
(PID.TID 0000.0001) // =======================================================
(PID.TID 0000.0001) %MON time_tsnumber                =                  1379
(PID.TID 0000.0001) %MON time_secondsf                =   1.3790000000000E+05
(PID.TID 0000.0001) %MON dynstat_eta_max              =   5.7995504125032E+00
(PID.TID 0000.0001) %MON dynstat_eta_min              =  -1.4191161971981E+01
(PID.TID 0000.0001) %MON dynstat_eta_mean             =  -2.5039059957355E+00
(PID.TID 0000.0001) %MON dynstat_eta_sd               =   4.9500084067467E+00
(PID.TID 0000.0001) %MON dynstat_eta_del2             =   2.0716432665065E-01
(PID.TID 0000.0001) %MON dynstat_uvel_max             =   1.1119001083237E-02
(PID.TID 0000.0001) %MON dynstat_uvel_min             =  -5.0907288724210E-02
(PID.TID 0000.0001) %MON dynstat_uvel_mean            =  -1.0797521683758E-07
(PID.TID 0000.0001) %MON dynstat_uvel_sd              =   1.4663420304479E-03
(PID.TID 0000.0001) %MON dynstat_uvel_del2            =   2.2042997059924E-06
(PID.TID 0000.0001) %MON dynstat_vvel_max             =   3.4238097525953E-02
(PID.TID 0000.0001) %MON dynstat_vvel_min             =  -1.7144761945662E-02
(PID.TID 0000.0001) %MON dynstat_vvel_mean            =   1.5071689013276E-05
(PID.TID 0000.0001) %MON dynstat_vvel_sd              =   7.8727903510730E-04
(PID.TID 0000.0001) %MON dynstat_vvel_del2            =   1.6274413172067E-06
(PID.TID 0000.0001) %MON dynstat_wvel_max             =   1.8622591894094E-03
(PID.TID 0000.0001) %MON dynstat_wvel_min             =  -1.7988292799134E-03
(PID.TID 0000.0001) %MON dynstat_wvel_mean            =   7.0922258798586E-09
(PID.TID 0000.0001) %MON dynstat_wvel_sd              =   2.9902993480921E-05
(PID.TID 0000.0001) %MON dynstat_wvel_del2            =   1.2067632210433E-07
(PID.TID 0000.0001) %MON dynstat_theta_max            =   1.2000000000000E+00
(PID.TID 0000.0001) %MON dynstat_theta_min            =  -1.0000000000000E+00
(PID.TID 0000.0001) %MON dynstat_theta_mean           =   5.6836879542341E-01
(PID.TID 0000.0001) %MON dynstat_theta_sd             =   8.6818821463552E-01
(PID.TID 0000.0001) %MON dynstat_theta_del2           =   5.1728316184058E-06
(PID.TID 0000.0001) %MON dynstat_salt_max             =   3.4700000000000E+01
(PID.TID 0000.0001) %MON dynstat_salt_min             =   3.4000000000000E+01
(PID.TID 0000.0001) %MON dynstat_salt_mean            =   3.4498961593973E+01
(PID.TID 0000.0001) %MON dynstat_salt_sd              =   2.7621575808926E-01
(PID.TID 0000.0001) %MON dynstat_salt_del2            =   2.0490481495554E-06
(PID.TID 0000.0001) %MON advcfl_uvel_max              =   5.0907288724210E-03
(PID.TID 0000.0001) %MON advcfl_vvel_max              =   3.4238097525953E-03
(PID.TID 0000.0001) %MON advcfl_wvel_max              =   9.3112959470471E-03
(PID.TID 0000.0001) %MON advcfl_W_hf_max              =   9.3112959470471E-03
(PID.TID 0000.0001) %MON pe_b_mean                    =  -8.2965317651754E-01
(PID.TID 0000.0001) %MON ke_max                       =   1.0598317355649E-03
(PID.TID 0000.0001) %MON ke_mean                      =   1.3637702426308E-06
(PID.TID 0000.0001) %MON ke_vol                       =   4.2724668219483E+12
(PID.TID 0000.0001) // =======================================================
(PID.TID 0000.0001) // End MONITOR dynamic field statistics
(PID.TID 0000.0001) // =======================================================
(PID.TID 0000.0001) // =======================================================
(PID.TID 0000.0001) // Begin OBCS MONITOR field statistics
(PID.TID 0000.0001) // =======================================================
(PID.TID 0000.0001) %MON obc_N_vVel_max               =   1.4790607289171E-05
(PID.TID 0000.0001) %MON obc_N_vVel_min               =   1.4790607289171E-05
(PID.TID 0000.0001) %MON obc_N_vVel_mean              =   1.4790607289171E-05
(PID.TID 0000.0001) %MON obc_N_vVel_sd                =   2.0145358970091E-12
(PID.TID 0000.0001) %MON obc_N_vVel_Int               =   9.7618008108532E+02
(PID.TID 0000.0001) // =======================================================
(PID.TID 0000.0001) // End OBCS MONITOR field statistics
(PID.TID 0000.0001) // =======================================================
 cg2d: Sum(rhs),rhsMax =   4.50765137352516E+00  2.99959170480908E+02
(PID.TID 0000.0001)      cg2d_init_res =   1.00080355169898E-05
(PID.TID 0000.0001)      cg2d_iters(min,last) =      -1      84
(PID.TID 0000.0001)      cg2d_last_res =   9.19391108340488E-12
(PID.TID 0000.0001) // =======================================================
(PID.TID 0000.0001) // Begin MONITOR dynamic field statistics
(PID.TID 0000.0001) // =======================================================
(PID.TID 0000.0001) %MON time_tsnumber                =                  1380
(PID.TID 0000.0001) %MON time_secondsf                =   1.3800000000000E+05
(PID.TID 0000.0001) %MON dynstat_eta_max              =   5.7995751348836E+00
(PID.TID 0000.0001) %MON dynstat_eta_min              =  -1.4191191480362E+01
(PID.TID 0000.0001) %MON dynstat_eta_mean             =  -2.5039099385551E+00
(PID.TID 0000.0001) %MON dynstat_eta_sd               =   4.9500102456845E+00
(PID.TID 0000.0001) %MON dynstat_eta_del2             =   2.0716437680486E-01
(PID.TID 0000.0001) %MON dynstat_uvel_max             =   1.1145008953234E-02
(PID.TID 0000.0001) %MON dynstat_uvel_min             =  -5.1017800460488E-02
(PID.TID 0000.0001) %MON dynstat_uvel_mean            =  -1.0805831120883E-07
(PID.TID 0000.0001) %MON dynstat_uvel_sd              =   1.4696086561145E-03
(PID.TID 0000.0001) %MON dynstat_uvel_del2            =   2.2096508668367E-06
(PID.TID 0000.0001) %MON dynstat_vvel_max             =   3.4288308800913E-02
(PID.TID 0000.0001) %MON dynstat_vvel_min             =  -1.7186784604498E-02
(PID.TID 0000.0001) %MON dynstat_vvel_mean            =   1.5071198545979E-05
(PID.TID 0000.0001) %MON dynstat_vvel_sd              =   7.8878503836632E-04
(PID.TID 0000.0001) %MON dynstat_vvel_del2            =   1.6306630863783E-06
(PID.TID 0000.0001) %MON dynstat_wvel_max             =   1.8654445127979E-03
(PID.TID 0000.0001) %MON dynstat_wvel_min             =  -1.8020341602052E-03
(PID.TID 0000.0001) %MON dynstat_wvel_mean            =   7.1096839360291E-09
(PID.TID 0000.0001) %MON dynstat_wvel_sd              =   2.9933363293576E-05
(PID.TID 0000.0001) %MON dynstat_wvel_del2            =   1.2082803478277E-07
(PID.TID 0000.0001) %MON dynstat_theta_max            =   1.2000000000000E+00
(PID.TID 0000.0001) %MON dynstat_theta_min            =  -1.0000000000000E+00
(PID.TID 0000.0001) %MON dynstat_theta_mean           =   5.6836730395764E-01
(PID.TID 0000.0001) %MON dynstat_theta_sd             =   8.6818742880946E-01
(PID.TID 0000.0001) %MON dynstat_theta_del2           =   5.1827639456474E-06
(PID.TID 0000.0001) %MON dynstat_salt_max             =   3.4700000000000E+01
(PID.TID 0000.0001) %MON dynstat_salt_min             =   3.4000000000000E+01
(PID.TID 0000.0001) %MON dynstat_salt_mean            =   3.4498960997008E+01
(PID.TID 0000.0001) %MON dynstat_salt_sd              =   2.7621545697889E-01
(PID.TID 0000.0001) %MON dynstat_salt_del2            =   2.0529941017733E-06
(PID.TID 0000.0001) %MON advcfl_uvel_max              =   5.1017800460488E-03
(PID.TID 0000.0001) %MON advcfl_vvel_max              =   3.4288308800913E-03
(PID.TID 0000.0001) %MON advcfl_wvel_max              =   9.3272225639897E-03
(PID.TID 0000.0001) %MON advcfl_W_hf_max              =   9.3272225639897E-03
(PID.TID 0000.0001) %MON pe_b_mean                    =  -8.2965368036591E-01
(PID.TID 0000.0001) %MON ke_max                       =   1.0648841899920E-03
(PID.TID 0000.0001) %MON ke_mean                      =   1.3696572339743E-06
(PID.TID 0000.0001) %MON ke_vol                       =   4.2724667983853E+12
(PID.TID 0000.0001) // =======================================================
(PID.TID 0000.0001) // End MONITOR dynamic field statistics
(PID.TID 0000.0001) // =======================================================
(PID.TID 0000.0001) // =======================================================
(PID.TID 0000.0001) // Begin OBCS MONITOR field statistics
(PID.TID 0000.0001) // =======================================================
(PID.TID 0000.0001) %MON obc_N_vVel_max               =   1.4788753832740E-05
(PID.TID 0000.0001) %MON obc_N_vVel_min               =   1.4788753832740E-05
(PID.TID 0000.0001) %MON obc_N_vVel_mean              =   1.4788753832740E-05
(PID.TID 0000.0001) %MON obc_N_vVel_sd                =  -5.9970594410095E-24
(PID.TID 0000.0001) %MON obc_N_vVel_Int               =   9.7605775296087E+02
(PID.TID 0000.0001) // =======================================================
(PID.TID 0000.0001) // End OBCS MONITOR field statistics
(PID.TID 0000.0001) // =======================================================
 cg2d: Sum(rhs),rhsMax =   4.50765732258164E+00  2.99959244326814E+02
(PID.TID 0000.0001)      cg2d_init_res =   1.00255972651389E-05
(PID.TID 0000.0001)      cg2d_iters(min,last) =      -1      84
(PID.TID 0000.0001)      cg2d_last_res =   9.21428311722131E-12
(PID.TID 0000.0001) // =======================================================
(PID.TID 0000.0001) // Begin MONITOR dynamic field statistics
(PID.TID 0000.0001) // =======================================================
(PID.TID 0000.0001) %MON time_tsnumber                =                  1381
(PID.TID 0000.0001) %MON time_secondsf                =   1.3810000000000E+05
(PID.TID 0000.0001) %MON dynstat_eta_max              =   5.7995999464913E+00
(PID.TID 0000.0001) %MON dynstat_eta_min              =  -1.4191220989324E+01
(PID.TID 0000.0001) %MON dynstat_eta_mean             =  -2.5039138595663E+00
(PID.TID 0000.0001) %MON dynstat_eta_sd               =   4.9500120801990E+00
(PID.TID 0000.0001) %MON dynstat_eta_del2             =   2.0716442703807E-01
(PID.TID 0000.0001) %MON dynstat_uvel_max             =   1.1171061913448E-02
(PID.TID 0000.0001) %MON dynstat_uvel_min             =  -5.1128433453108E-02
(PID.TID 0000.0001) %MON dynstat_uvel_mean            =  -1.0814158254154E-07
(PID.TID 0000.0001) %MON dynstat_uvel_sd              =   1.4728815626906E-03
(PID.TID 0000.0001) %MON dynstat_uvel_del2            =   2.2150150759046E-06
(PID.TID 0000.0001) %MON dynstat_vvel_max             =   3.4338502514994E-02
(PID.TID 0000.0001) %MON dynstat_vvel_min             =  -1.7228894443331E-02
(PID.TID 0000.0001) %MON dynstat_vvel_mean            =   1.5073018662082E-05
(PID.TID 0000.0001) %MON dynstat_vvel_sd              =   7.9029320464584E-04
(PID.TID 0000.0001) %MON dynstat_vvel_del2            =   1.6338917778005E-06
(PID.TID 0000.0001) %MON dynstat_wvel_max             =   1.8686297933187E-03
(PID.TID 0000.0001) %MON dynstat_wvel_min             =  -1.8052402857607E-03
(PID.TID 0000.0001) %MON dynstat_wvel_mean            =   7.1299513061091E-09
(PID.TID 0000.0001) %MON dynstat_wvel_sd              =   2.9963359080817E-05
(PID.TID 0000.0001) %MON dynstat_wvel_del2            =   1.2098423924742E-07
(PID.TID 0000.0001) %MON dynstat_theta_max            =   1.2000000000000E+00
(PID.TID 0000.0001) %MON dynstat_theta_min            =  -1.0000000000000E+00
(PID.TID 0000.0001) %MON dynstat_theta_mean           =   5.6836580975715E-01
(PID.TID 0000.0001) %MON dynstat_theta_sd             =   8.6818664182581E-01
(PID.TID 0000.0001) %MON dynstat_theta_del2           =   5.1927107692859E-06
(PID.TID 0000.0001) %MON dynstat_salt_max             =   3.4700000000000E+01
(PID.TID 0000.0001) %MON dynstat_salt_min             =   3.4000000000000E+01
(PID.TID 0000.0001) %MON dynstat_salt_mean            =   3.4498960398956E+01
(PID.TID 0000.0001) %MON dynstat_salt_sd              =   2.7621515543377E-01
(PID.TID 0000.0001) %MON dynstat_salt_del2            =   2.0569457645865E-06
(PID.TID 0000.0001) %MON advcfl_uvel_max              =   5.1128433453108E-03
(PID.TID 0000.0001) %MON advcfl_vvel_max              =   3.4338502514994E-03
(PID.TID 0000.0001) %MON advcfl_wvel_max              =   9.3431489665937E-03
(PID.TID 0000.0001) %MON advcfl_W_hf_max              =   9.3431489665937E-03
(PID.TID 0000.0001) %MON pe_b_mean                    =  -8.2965417714838E-01
(PID.TID 0000.0001) %MON ke_max                       =   1.0699553346042E-03
(PID.TID 0000.0001) %MON ke_mean                      =   1.3755677642060E-06
(PID.TID 0000.0001) %MON ke_vol                       =   4.2724667749650E+12
(PID.TID 0000.0001) // =======================================================
(PID.TID 0000.0001) // End MONITOR dynamic field statistics
(PID.TID 0000.0001) // =======================================================
(PID.TID 0000.0001) // =======================================================
(PID.TID 0000.0001) // Begin OBCS MONITOR field statistics
(PID.TID 0000.0001) // =======================================================
(PID.TID 0000.0001) %MON obc_N_vVel_max               =   1.4788916168764E-05
(PID.TID 0000.0001) %MON obc_N_vVel_min               =   1.4788916168763E-05
(PID.TID 0000.0001) %MON obc_N_vVel_mean              =   1.4788916168763E-05
(PID.TID 0000.0001) %MON obc_N_vVel_sd                =   4.1833048937802E-12
(PID.TID 0000.0001) %MON obc_N_vVel_Int               =   9.7606846713837E+02
(PID.TID 0000.0001) // =======================================================
(PID.TID 0000.0001) // End OBCS MONITOR field statistics
(PID.TID 0000.0001) // =======================================================
 cg2d: Sum(rhs),rhsMax =   4.50766323401857E+00  2.99959318325563E+02
(PID.TID 0000.0001)      cg2d_init_res =   1.00437907823770E-05
(PID.TID 0000.0001)      cg2d_iters(min,last) =      -1      84
(PID.TID 0000.0001)      cg2d_last_res =   9.23462384539476E-12
(PID.TID 0000.0001) // =======================================================
(PID.TID 0000.0001) // Begin MONITOR dynamic field statistics
(PID.TID 0000.0001) // =======================================================
(PID.TID 0000.0001) %MON time_tsnumber                =                  1382
(PID.TID 0000.0001) %MON time_secondsf                =   1.3820000000000E+05
(PID.TID 0000.0001) %MON dynstat_eta_max              =   5.7996248431360E+00
(PID.TID 0000.0001) %MON dynstat_eta_min              =  -1.4191250501566E+01
(PID.TID 0000.0001) %MON dynstat_eta_mean             =  -2.5039177609582E+00
(PID.TID 0000.0001) %MON dynstat_eta_sd               =   4.9500139109672E+00
(PID.TID 0000.0001) %MON dynstat_eta_del2             =   2.0716447735073E-01
(PID.TID 0000.0001) %MON dynstat_uvel_max             =   1.1197160004546E-02
(PID.TID 0000.0001) %MON dynstat_uvel_min             =  -5.1239187242660E-02
(PID.TID 0000.0001) %MON dynstat_uvel_mean            =  -1.0822281570058E-07
(PID.TID 0000.0001) %MON dynstat_uvel_sd              =   1.4761607493598E-03
(PID.TID 0000.0001) %MON dynstat_uvel_del2            =   2.2203923621610E-06
(PID.TID 0000.0001) %MON dynstat_vvel_max             =   3.4388678425344E-02
(PID.TID 0000.0001) %MON dynstat_vvel_min             =  -1.7271091561007E-02
(PID.TID 0000.0001) %MON dynstat_vvel_mean            =   1.5077105612897E-05
(PID.TID 0000.0001) %MON dynstat_vvel_sd              =   7.9180379195730E-04
(PID.TID 0000.0001) %MON dynstat_vvel_del2            =   1.6371276547963E-06
(PID.TID 0000.0001) %MON dynstat_wvel_max             =   1.8718150108964E-03
(PID.TID 0000.0001) %MON dynstat_wvel_min             =  -1.8084476446525E-03
(PID.TID 0000.0001) %MON dynstat_wvel_mean            =   7.1526325483048E-09
(PID.TID 0000.0001) %MON dynstat_wvel_sd              =   2.9993465635326E-05
(PID.TID 0000.0001) %MON dynstat_wvel_del2            =   1.2114642546116E-07
(PID.TID 0000.0001) %MON dynstat_theta_max            =   1.2000000000000E+00
(PID.TID 0000.0001) %MON dynstat_theta_min            =  -1.0000000000000E+00
(PID.TID 0000.0001) %MON dynstat_theta_mean           =   5.6836431282105E-01
(PID.TID 0000.0001) %MON dynstat_theta_sd             =   8.6818585367879E-01
(PID.TID 0000.0001) %MON dynstat_theta_del2           =   5.2026713002818E-06
(PID.TID 0000.0001) %MON dynstat_salt_max             =   3.4700000000000E+01
(PID.TID 0000.0001) %MON dynstat_salt_min             =   3.4000000000000E+01
(PID.TID 0000.0001) %MON dynstat_salt_mean            =   3.4498959799818E+01
(PID.TID 0000.0001) %MON dynstat_salt_sd              =   2.7621485345179E-01
(PID.TID 0000.0001) %MON dynstat_salt_del2            =   2.0609029280498E-06
(PID.TID 0000.0001) %MON advcfl_uvel_max              =   5.1239187242660E-03
(PID.TID 0000.0001) %MON advcfl_vvel_max              =   3.4388678425344E-03
(PID.TID 0000.0001) %MON advcfl_wvel_max              =   9.3590750544821E-03
(PID.TID 0000.0001) %MON advcfl_W_hf_max              =   9.3590750544821E-03
(PID.TID 0000.0001) %MON pe_b_mean                    =  -8.2965466742129E-01
(PID.TID 0000.0001) %MON ke_max                       =   1.0750452004888E-03
(PID.TID 0000.0001) %MON ke_mean                      =   1.3815021060093E-06
(PID.TID 0000.0001) %MON ke_vol                       =   4.2724667516742E+12
(PID.TID 0000.0001) // =======================================================
(PID.TID 0000.0001) // End MONITOR dynamic field statistics
(PID.TID 0000.0001) // =======================================================
(PID.TID 0000.0001) // =======================================================
(PID.TID 0000.0001) // Begin OBCS MONITOR field statistics
(PID.TID 0000.0001) // =======================================================
(PID.TID 0000.0001) %MON obc_N_vVel_max               =   1.4791082808148E-05
(PID.TID 0000.0001) %MON obc_N_vVel_min               =   1.4791082808148E-05
(PID.TID 0000.0001) %MON obc_N_vVel_mean              =   1.4791082808148E-05
(PID.TID 0000.0001) %MON obc_N_vVel_sd                =   1.8189894035459E-12
(PID.TID 0000.0001) %MON obc_N_vVel_Int               =   9.7621146533776E+02
(PID.TID 0000.0001) // =======================================================
(PID.TID 0000.0001) // End OBCS MONITOR field statistics
(PID.TID 0000.0001) // =======================================================
 cg2d: Sum(rhs),rhsMax =   4.50766911136198E+00  2.99959392497990E+02
(PID.TID 0000.0001)      cg2d_init_res =   1.00625082055798E-05
(PID.TID 0000.0001)      cg2d_iters(min,last) =      -1      84
(PID.TID 0000.0001)      cg2d_last_res =   9.25473949068500E-12
(PID.TID 0000.0001) // =======================================================
(PID.TID 0000.0001) // Begin MONITOR dynamic field statistics
(PID.TID 0000.0001) // =======================================================
(PID.TID 0000.0001) %MON time_tsnumber                =                  1383
(PID.TID 0000.0001) %MON time_secondsf                =   1.3830000000000E+05
(PID.TID 0000.0001) %MON dynstat_eta_max              =   5.7996498208272E+00
(PID.TID 0000.0001) %MON dynstat_eta_min              =  -1.4191280019665E+01
(PID.TID 0000.0001) %MON dynstat_eta_mean             =  -2.5039216448631E+00
(PID.TID 0000.0001) %MON dynstat_eta_sd               =   4.9500157386124E+00
(PID.TID 0000.0001) %MON dynstat_eta_del2             =   2.0716452774325E-01
(PID.TID 0000.0001) %MON dynstat_uvel_max             =   1.1223303268793E-02
(PID.TID 0000.0001) %MON dynstat_uvel_min             =  -5.1350061358125E-02
(PID.TID 0000.0001) %MON dynstat_uvel_mean            =  -1.0829984185110E-07
(PID.TID 0000.0001) %MON dynstat_uvel_sd              =   1.4794462151392E-03
(PID.TID 0000.0001) %MON dynstat_uvel_del2            =   2.2257827545532E-06
(PID.TID 0000.0001) %MON dynstat_vvel_max             =   3.4438836277602E-02
(PID.TID 0000.0001) %MON dynstat_vvel_min             =  -1.7313376065108E-02
(PID.TID 0000.0001) %MON dynstat_vvel_mean            =   1.5083371405846E-05
(PID.TID 0000.0001) %MON dynstat_vvel_sd              =   7.9331705569345E-04
(PID.TID 0000.0001) %MON dynstat_vvel_del2            =   1.6403708318261E-06
(PID.TID 0000.0001) %MON dynstat_wvel_max             =   1.8750001454600E-03
(PID.TID 0000.0001) %MON dynstat_wvel_min             =  -1.8116562242533E-03
(PID.TID 0000.0001) %MON dynstat_wvel_mean            =   7.1772885450887E-09
(PID.TID 0000.0001) %MON dynstat_wvel_sd              =   3.0024096041297E-05
(PID.TID 0000.0001) %MON dynstat_wvel_del2            =   1.2131543630383E-07
(PID.TID 0000.0001) %MON dynstat_theta_max            =   1.2000000000000E+00
(PID.TID 0000.0001) %MON dynstat_theta_min            =  -1.0000000000000E+00
(PID.TID 0000.0001) %MON dynstat_theta_mean           =   5.6836281314868E-01
(PID.TID 0000.0001) %MON dynstat_theta_sd             =   8.6818506436268E-01
(PID.TID 0000.0001) %MON dynstat_theta_del2           =   5.2126449301981E-06
(PID.TID 0000.0001) %MON dynstat_salt_max             =   3.4700000000000E+01
(PID.TID 0000.0001) %MON dynstat_salt_min             =   3.4000000000000E+01
(PID.TID 0000.0001) %MON dynstat_salt_mean            =   3.4498959199592E+01
(PID.TID 0000.0001) %MON dynstat_salt_sd              =   2.7621455103147E-01
(PID.TID 0000.0001) %MON dynstat_salt_del2            =   2.0648654256885E-06
(PID.TID 0000.0001) %MON advcfl_uvel_max              =   5.1350061358125E-03
(PID.TID 0000.0001) %MON advcfl_vvel_max              =   3.4438836277602E-03
(PID.TID 0000.0001) %MON advcfl_wvel_max              =   9.3750007273000E-03
(PID.TID 0000.0001) %MON advcfl_W_hf_max              =   9.3750007273000E-03
(PID.TID 0000.0001) %MON pe_b_mean                    =  -8.2965515171564E-01
(PID.TID 0000.0001) %MON ke_max                       =   1.0801538180307E-03
(PID.TID 0000.0001) %MON ke_mean                      =   1.3874605307827E-06
(PID.TID 0000.0001) %MON ke_vol                       =   4.2724667284999E+12
(PID.TID 0000.0001) // =======================================================
(PID.TID 0000.0001) // End MONITOR dynamic field statistics
(PID.TID 0000.0001) // =======================================================
(PID.TID 0000.0001) // =======================================================
(PID.TID 0000.0001) // Begin OBCS MONITOR field statistics
(PID.TID 0000.0001) // =======================================================
(PID.TID 0000.0001) %MON obc_N_vVel_max               =   1.4795202957769E-05
(PID.TID 0000.0001) %MON obc_N_vVel_min               =   1.4795202957769E-05
(PID.TID 0000.0001) %MON obc_N_vVel_mean              =   1.4795202957769E-05
(PID.TID 0000.0001) %MON obc_N_vVel_sd                =   4.6597737154842E-12
(PID.TID 0000.0001) %MON obc_N_vVel_Int               =   9.7648339521274E+02
(PID.TID 0000.0001) // =======================================================
(PID.TID 0000.0001) // End OBCS MONITOR field statistics
(PID.TID 0000.0001) // =======================================================
 cg2d: Sum(rhs),rhsMax =   4.50767495801953E+00  2.99959466860989E+02
(PID.TID 0000.0001)      cg2d_init_res =   1.00816315049208E-05
(PID.TID 0000.0001)      cg2d_iters(min,last) =      -1      84
(PID.TID 0000.0001)      cg2d_last_res =   9.27444699245377E-12
(PID.TID 0000.0001) // =======================================================
(PID.TID 0000.0001) // Begin MONITOR dynamic field statistics
(PID.TID 0000.0001) // =======================================================
(PID.TID 0000.0001) %MON time_tsnumber                =                  1384
(PID.TID 0000.0001) %MON time_secondsf                =   1.3840000000000E+05
(PID.TID 0000.0001) %MON dynstat_eta_max              =   5.7996748758520E+00
(PID.TID 0000.0001) %MON dynstat_eta_min              =  -1.4191309546028E+01
(PID.TID 0000.0001) %MON dynstat_eta_mean             =  -2.5039255133151E+00
(PID.TID 0000.0001) %MON dynstat_eta_sd               =   4.9500175636921E+00
(PID.TID 0000.0001) %MON dynstat_eta_del2             =   2.0716457821595E-01
(PID.TID 0000.0001) %MON dynstat_uvel_max             =   1.1249491750700E-02
(PID.TID 0000.0001) %MON dynstat_uvel_min             =  -5.1461055312184E-02
(PID.TID 0000.0001) %MON dynstat_uvel_mean            =  -1.0837056800675E-07
(PID.TID 0000.0001) %MON dynstat_uvel_sd              =   1.4827379589643E-03
(PID.TID 0000.0001) %MON dynstat_uvel_del2            =   2.2311862822055E-06
(PID.TID 0000.0001) %MON dynstat_vvel_max             =   3.4488975822807E-02
(PID.TID 0000.0001) %MON dynstat_vvel_min             =  -1.7355748069816E-02
(PID.TID 0000.0001) %MON dynstat_vvel_mean            =   1.5091685847366E-05
(PID.TID 0000.0001) %MON dynstat_vvel_sd              =   7.9483324425811E-04
(PID.TID 0000.0001) %MON dynstat_vvel_del2            =   1.6436212724062E-06
(PID.TID 0000.0001) %MON dynstat_wvel_max             =   1.8781851752816E-03
(PID.TID 0000.0001) %MON dynstat_wvel_min             =  -1.8148660115534E-03
(PID.TID 0000.0001) %MON dynstat_wvel_mean            =   7.2034446401780E-09
(PID.TID 0000.0001) %MON dynstat_wvel_sd              =   3.0055582055815E-05
(PID.TID 0000.0001) %MON dynstat_wvel_del2            =   1.2149142745209E-07
(PID.TID 0000.0001) %MON dynstat_theta_max            =   1.2000000000000E+00
(PID.TID 0000.0001) %MON dynstat_theta_min            =  -1.0000000000000E+00
(PID.TID 0000.0001) %MON dynstat_theta_mean           =   5.6836131073955E-01
(PID.TID 0000.0001) %MON dynstat_theta_sd             =   8.6818427387360E-01
(PID.TID 0000.0001) %MON dynstat_theta_del2           =   5.2226312287614E-06
(PID.TID 0000.0001) %MON dynstat_salt_max             =   3.4700000000000E+01
(PID.TID 0000.0001) %MON dynstat_salt_min             =   3.4000000000000E+01
(PID.TID 0000.0001) %MON dynstat_salt_mean            =   3.4498958598278E+01
(PID.TID 0000.0001) %MON dynstat_salt_sd              =   2.7621424817142E-01
(PID.TID 0000.0001) %MON dynstat_salt_del2            =   2.0688331477533E-06
(PID.TID 0000.0001) %MON advcfl_uvel_max              =   5.1461055312184E-03
(PID.TID 0000.0001) %MON advcfl_vvel_max              =   3.4488975822807E-03
(PID.TID 0000.0001) %MON advcfl_wvel_max              =   9.3909258764081E-03
(PID.TID 0000.0001) %MON advcfl_W_hf_max              =   9.3909258764081E-03
(PID.TID 0000.0001) %MON pe_b_mean                    =  -8.2965563052659E-01
(PID.TID 0000.0001) %MON ke_max                       =   1.0852812169929E-03
(PID.TID 0000.0001) %MON ke_mean                      =   1.3934433052999E-06
(PID.TID 0000.0001) %MON ke_vol                       =   4.2724667054295E+12
(PID.TID 0000.0001) // =======================================================
(PID.TID 0000.0001) // End MONITOR dynamic field statistics
(PID.TID 0000.0001) // =======================================================
(PID.TID 0000.0001) // =======================================================
(PID.TID 0000.0001) // Begin OBCS MONITOR field statistics
(PID.TID 0000.0001) // =======================================================
(PID.TID 0000.0001) %MON obc_N_vVel_max               =   1.4801187739522E-05
(PID.TID 0000.0001) %MON obc_N_vVel_min               =   1.4801187739521E-05
(PID.TID 0000.0001) %MON obc_N_vVel_mean              =   1.4801187739522E-05
(PID.TID 0000.0001) %MON obc_N_vVel_sd                =  -1.0339757656913E-23
(PID.TID 0000.0001) %MON obc_N_vVel_Int               =   9.7687839080844E+02
(PID.TID 0000.0001) // =======================================================
(PID.TID 0000.0001) // End OBCS MONITOR field statistics
(PID.TID 0000.0001) // =======================================================
 cg2d: Sum(rhs),rhsMax =   4.50768077720986E+00  2.99959541427332E+02
(PID.TID 0000.0001)      cg2d_init_res =   1.01010330904984E-05
(PID.TID 0000.0001)      cg2d_iters(min,last) =      -1      84
(PID.TID 0000.0001)      cg2d_last_res =   9.29360497313552E-12
(PID.TID 0000.0001) // =======================================================
(PID.TID 0000.0001) // Begin MONITOR dynamic field statistics
(PID.TID 0000.0001) // =======================================================
(PID.TID 0000.0001) %MON time_tsnumber                =                  1385
(PID.TID 0000.0001) %MON time_secondsf                =   1.3850000000000E+05
(PID.TID 0000.0001) %MON dynstat_eta_max              =   5.7997000048435E+00
(PID.TID 0000.0001) %MON dynstat_eta_min              =  -1.4191339082857E+01
(PID.TID 0000.0001) %MON dynstat_eta_mean             =  -2.5039293682086E+00
(PID.TID 0000.0001) %MON dynstat_eta_sd               =   4.9500193866859E+00
(PID.TID 0000.0001) %MON dynstat_eta_del2             =   2.0716462876906E-01
(PID.TID 0000.0001) %MON dynstat_uvel_max             =   1.1275725497368E-02
(PID.TID 0000.0001) %MON dynstat_uvel_min             =  -5.1572168606451E-02
(PID.TID 0000.0001) %MON dynstat_uvel_mean            =  -1.0843302880175E-07
(PID.TID 0000.0001) %MON dynstat_uvel_sd              =   1.4860359797410E-03
(PID.TID 0000.0001) %MON dynstat_uvel_del2            =   2.2366029744083E-06
(PID.TID 0000.0001) %MON dynstat_vvel_max             =   3.4539096792046E-02
(PID.TID 0000.0001) %MON dynstat_vvel_min             =  -1.7398207695393E-02
(PID.TID 0000.0001) %MON dynstat_vvel_mean            =   1.5101879413354E-05
(PID.TID 0000.0001) %MON dynstat_vvel_sd              =   7.9635259562714E-04
(PID.TID 0000.0001) %MON dynstat_vvel_del2            =   1.6468787997231E-06
(PID.TID 0000.0001) %MON dynstat_wvel_max             =   1.8813700803309E-03
(PID.TID 0000.0001) %MON dynstat_wvel_min             =  -1.8180769930898E-03
(PID.TID 0000.0001) %MON dynstat_wvel_mean            =   7.2305998604410E-09
(PID.TID 0000.0001) %MON dynstat_wvel_sd              =   3.0088172108633E-05
(PID.TID 0000.0001) %MON dynstat_wvel_del2            =   1.2167388560553E-07
(PID.TID 0000.0001) %MON dynstat_theta_max            =   1.2000000000000E+00
(PID.TID 0000.0001) %MON dynstat_theta_min            =  -1.0000000000000E+00
(PID.TID 0000.0001) %MON dynstat_theta_mean           =   5.6835980559323E-01
(PID.TID 0000.0001) %MON dynstat_theta_sd             =   8.6818348220687E-01
(PID.TID 0000.0001) %MON dynstat_theta_del2           =   5.2326299406174E-06
(PID.TID 0000.0001) %MON dynstat_salt_max             =   3.4700000000000E+01
(PID.TID 0000.0001) %MON dynstat_salt_min             =   3.4000000000000E+01
(PID.TID 0000.0001) %MON dynstat_salt_mean            =   3.4498957995875E+01
(PID.TID 0000.0001) %MON dynstat_salt_sd              =   2.7621394487026E-01
(PID.TID 0000.0001) %MON dynstat_salt_del2            =   2.0728060300690E-06
(PID.TID 0000.0001) %MON advcfl_uvel_max              =   5.1572168606451E-03
(PID.TID 0000.0001) %MON advcfl_vvel_max              =   3.4539096792046E-03
(PID.TID 0000.0001) %MON advcfl_wvel_max              =   9.4068504016546E-03
(PID.TID 0000.0001) %MON advcfl_W_hf_max              =   9.4068504016546E-03
(PID.TID 0000.0001) %MON pe_b_mean                    =  -8.2965610430350E-01
(PID.TID 0000.0001) %MON ke_max                       =   1.0904274268735E-03
(PID.TID 0000.0001) %MON ke_mean                      =   1.3994506890401E-06
(PID.TID 0000.0001) %MON ke_vol                       =   4.2724666824509E+12
(PID.TID 0000.0001) // =======================================================
(PID.TID 0000.0001) // End MONITOR dynamic field statistics
(PID.TID 0000.0001) // =======================================================
(PID.TID 0000.0001) // =======================================================
(PID.TID 0000.0001) // Begin OBCS MONITOR field statistics
(PID.TID 0000.0001) // =======================================================
(PID.TID 0000.0001) %MON obc_N_vVel_max               =   1.4808912266110E-05
(PID.TID 0000.0001) %MON obc_N_vVel_min               =   1.4808912266109E-05
(PID.TID 0000.0001) %MON obc_N_vVel_mean              =   1.4808912266110E-05
(PID.TID 0000.0001) %MON obc_N_vVel_sd                =  -1.4268865566540E-23
(PID.TID 0000.0001) %MON obc_N_vVel_Int               =   9.7738820956325E+02
(PID.TID 0000.0001) // =======================================================
(PID.TID 0000.0001) // End OBCS MONITOR field statistics
(PID.TID 0000.0001) // =======================================================
 cg2d: Sum(rhs),rhsMax =   4.50768657190134E+00  2.99959616205472E+02
(PID.TID 0000.0001)      cg2d_init_res =   1.01205749637890E-05
(PID.TID 0000.0001)      cg2d_iters(min,last) =      -1      84
(PID.TID 0000.0001)      cg2d_last_res =   9.31203779576542E-12
(PID.TID 0000.0001) // =======================================================
(PID.TID 0000.0001) // Begin MONITOR dynamic field statistics
(PID.TID 0000.0001) // =======================================================
(PID.TID 0000.0001) %MON time_tsnumber                =                  1386
(PID.TID 0000.0001) %MON time_secondsf                =   1.3860000000000E+05
(PID.TID 0000.0001) %MON dynstat_eta_max              =   5.7997252048569E+00
(PID.TID 0000.0001) %MON dynstat_eta_min              =  -1.4191368632110E+01
(PID.TID 0000.0001) %MON dynstat_eta_mean             =  -2.5039332112631E+00
(PID.TID 0000.0001) %MON dynstat_eta_sd               =   4.9500212079890E+00
(PID.TID 0000.0001) %MON dynstat_eta_del2             =   2.0716467940273E-01
(PID.TID 0000.0001) %MON dynstat_uvel_max             =   1.1302004558004E-02
(PID.TID 0000.0001) %MON dynstat_uvel_min             =  -5.1683400734124E-02
(PID.TID 0000.0001) %MON dynstat_uvel_mean            =  -1.0848543782507E-07
(PID.TID 0000.0001) %MON dynstat_uvel_sd              =   1.4893402764156E-03
(PID.TID 0000.0001) %MON dynstat_uvel_del2            =   2.2420328605817E-06
(PID.TID 0000.0001) %MON dynstat_vvel_max             =   3.4589198909096E-02
(PID.TID 0000.0001) %MON dynstat_vvel_min             =  -1.7440755067899E-02
(PID.TID 0000.0001) %MON dynstat_vvel_mean            =   1.5113746876388E-05
(PID.TID 0000.0001) %MON dynstat_vvel_sd              =   7.9787533480152E-04
(PID.TID 0000.0001) %MON dynstat_vvel_del2            =   1.6501431184181E-06
(PID.TID 0000.0001) %MON dynstat_wvel_max             =   1.8845548405968E-03
(PID.TID 0000.0001) %MON dynstat_wvel_min             =  -1.8212891549427E-03
(PID.TID 0000.0001) %MON dynstat_wvel_mean            =   7.2582372313181E-09
(PID.TID 0000.0001) %MON dynstat_wvel_sd              =   3.0122036548237E-05
(PID.TID 0000.0001) %MON dynstat_wvel_del2            =   1.2186170206440E-07
(PID.TID 0000.0001) %MON dynstat_theta_max            =   1.2000000000000E+00
(PID.TID 0000.0001) %MON dynstat_theta_min            =  -1.0000000000000E+00
(PID.TID 0000.0001) %MON dynstat_theta_mean           =   5.6835829770951E-01
(PID.TID 0000.0001) %MON dynstat_theta_sd             =   8.6818268935769E-01
(PID.TID 0000.0001) %MON dynstat_theta_del2           =   5.2426409575278E-06
(PID.TID 0000.0001) %MON dynstat_salt_max             =   3.4700000000000E+01
(PID.TID 0000.0001) %MON dynstat_salt_min             =   3.4000000000000E+01
(PID.TID 0000.0001) %MON dynstat_salt_mean            =   3.4498957392383E+01
(PID.TID 0000.0001) %MON dynstat_salt_sd              =   2.7621364112654E-01
(PID.TID 0000.0001) %MON dynstat_salt_del2            =   2.0767840506113E-06
(PID.TID 0000.0001) %MON advcfl_uvel_max              =   5.1683400734124E-03
(PID.TID 0000.0001) %MON advcfl_vvel_max              =   3.4589198909096E-03
(PID.TID 0000.0001) %MON advcfl_wvel_max              =   9.4227742029838E-03
(PID.TID 0000.0001) %MON advcfl_W_hf_max              =   9.4227742029838E-03
(PID.TID 0000.0001) %MON pe_b_mean                    =  -8.2965657344158E-01
(PID.TID 0000.0001) %MON ke_max                       =   1.0955924769707E-03
(PID.TID 0000.0001) %MON ke_mean                      =   1.4054829322346E-06
(PID.TID 0000.0001) %MON ke_vol                       =   4.2724666595528E+12
(PID.TID 0000.0001) // =======================================================
(PID.TID 0000.0001) // End MONITOR dynamic field statistics
(PID.TID 0000.0001) // =======================================================
(PID.TID 0000.0001) // =======================================================
(PID.TID 0000.0001) // Begin OBCS MONITOR field statistics
(PID.TID 0000.0001) // =======================================================
(PID.TID 0000.0001) %MON obc_N_vVel_max               =   1.4818218357689E-05
(PID.TID 0000.0001) %MON obc_N_vVel_min               =   1.4818218357689E-05
(PID.TID 0000.0001) %MON obc_N_vVel_mean              =   1.4818218357689E-05
(PID.TID 0000.0001) %MON obc_N_vVel_sd                =  -7.6255712719732E-24
(PID.TID 0000.0001) %MON obc_N_vVel_Int               =   9.7800241160749E+02
(PID.TID 0000.0001) // =======================================================
(PID.TID 0000.0001) // End OBCS MONITOR field statistics
(PID.TID 0000.0001) // =======================================================
 cg2d: Sum(rhs),rhsMax =   4.50769234474962E+00  2.99959691199499E+02
(PID.TID 0000.0001)      cg2d_init_res =   1.01401104451334E-05
(PID.TID 0000.0001)      cg2d_iters(min,last) =      -1      84
(PID.TID 0000.0001)      cg2d_last_res =   9.32957512305583E-12
(PID.TID 0000.0001) // =======================================================
(PID.TID 0000.0001) // Begin MONITOR dynamic field statistics
(PID.TID 0000.0001) // =======================================================
(PID.TID 0000.0001) %MON time_tsnumber                =                  1387
(PID.TID 0000.0001) %MON time_secondsf                =   1.3870000000000E+05
(PID.TID 0000.0001) %MON dynstat_eta_max              =   5.7997504734220E+00
(PID.TID 0000.0001) %MON dynstat_eta_min              =  -1.4191398195476E+01
(PID.TID 0000.0001) %MON dynstat_eta_mean             =  -2.5039370439878E+00
(PID.TID 0000.0001) %MON dynstat_eta_sd               =   4.9500230279012E+00
(PID.TID 0000.0001) %MON dynstat_eta_del2             =   2.0716473011702E-01
(PID.TID 0000.0001) %MON dynstat_uvel_max             =   1.1328328982763E-02
(PID.TID 0000.0001) %MON dynstat_uvel_min             =  -5.1794751180715E-02
(PID.TID 0000.0001) %MON dynstat_uvel_mean            =  -1.0852622541126E-07
(PID.TID 0000.0001) %MON dynstat_uvel_sd              =   1.4926508480390E-03
(PID.TID 0000.0001) %MON dynstat_uvel_del2            =   2.2474759702226E-06
(PID.TID 0000.0001) %MON dynstat_vvel_max             =   3.4639281891597E-02
(PID.TID 0000.0001) %MON dynstat_vvel_min             =  -1.7483390318702E-02
(PID.TID 0000.0001) %MON dynstat_vvel_mean            =   1.5127051617350E-05
(PID.TID 0000.0001) %MON dynstat_vvel_sd              =   7.9940167210366E-04
(PID.TID 0000.0001) %MON dynstat_vvel_del2            =   1.6534138458366E-06
(PID.TID 0000.0001) %MON dynstat_wvel_max             =   1.8877394360700E-03
(PID.TID 0000.0001) %MON dynstat_wvel_min             =  -1.8245024827374E-03
(PID.TID 0000.0001) %MON dynstat_wvel_mean            =   7.2858341362214E-09
(PID.TID 0000.0001) %MON dynstat_wvel_sd              =   3.0157279199266E-05
(PID.TID 0000.0001) %MON dynstat_wvel_del2            =   1.2205329512462E-07
(PID.TID 0000.0001) %MON dynstat_theta_max            =   1.2000000000000E+00
(PID.TID 0000.0001) %MON dynstat_theta_min            =  -1.0000000000000E+00
(PID.TID 0000.0001) %MON dynstat_theta_mean           =   5.6835678708813E-01
(PID.TID 0000.0001) %MON dynstat_theta_sd             =   8.6818189532324E-01
(PID.TID 0000.0001) %MON dynstat_theta_del2           =   5.2526672188931E-06
(PID.TID 0000.0001) %MON dynstat_salt_max             =   3.4700000000000E+01
(PID.TID 0000.0001) %MON dynstat_salt_min             =   3.4000000000000E+01
(PID.TID 0000.0001) %MON dynstat_salt_mean            =   3.4498956787802E+01
(PID.TID 0000.0001) %MON dynstat_salt_sd              =   2.7621333693893E-01
(PID.TID 0000.0001) %MON dynstat_salt_del2            =   2.0807672246466E-06
(PID.TID 0000.0001) %MON advcfl_uvel_max              =   5.1794751180715E-03
(PID.TID 0000.0001) %MON advcfl_vvel_max              =   3.4639281891597E-03
(PID.TID 0000.0001) %MON advcfl_wvel_max              =   9.4386971803501E-03
(PID.TID 0000.0001) %MON advcfl_W_hf_max              =   9.4386971803501E-03
(PID.TID 0000.0001) %MON pe_b_mean                    =  -8.2965703827365E-01
(PID.TID 0000.0001) %MON ke_max                       =   1.1007763963954E-03
(PID.TID 0000.0001) %MON ke_mean                      =   1.4115402745683E-06
(PID.TID 0000.0001) %MON ke_vol                       =   4.2724666367251E+12
(PID.TID 0000.0001) // =======================================================
(PID.TID 0000.0001) // End MONITOR dynamic field statistics
(PID.TID 0000.0001) // =======================================================
(PID.TID 0000.0001) // =======================================================
(PID.TID 0000.0001) // Begin OBCS MONITOR field statistics
(PID.TID 0000.0001) // =======================================================
(PID.TID 0000.0001) %MON obc_N_vVel_max               =   1.4828917923870E-05
(PID.TID 0000.0001) %MON obc_N_vVel_min               =   1.4828917923870E-05
(PID.TID 0000.0001) %MON obc_N_vVel_mean              =   1.4828917923870E-05
(PID.TID 0000.0001) %MON obc_N_vVel_sd                =   1.7538751104145E-12
(PID.TID 0000.0001) %MON obc_N_vVel_Int               =   9.7870858297543E+02
(PID.TID 0000.0001) // =======================================================
(PID.TID 0000.0001) // End OBCS MONITOR field statistics
(PID.TID 0000.0001) // =======================================================
 cg2d: Sum(rhs),rhsMax =   4.50769809804921E+00  2.99959766409174E+02
(PID.TID 0000.0001)      cg2d_init_res =   1.01594893486831E-05
(PID.TID 0000.0001)      cg2d_iters(min,last) =      -1      84
(PID.TID 0000.0001)      cg2d_last_res =   9.34612671122336E-12
(PID.TID 0000.0001) // =======================================================
(PID.TID 0000.0001) // Begin MONITOR dynamic field statistics
(PID.TID 0000.0001) // =======================================================
(PID.TID 0000.0001) %MON time_tsnumber                =                  1388
(PID.TID 0000.0001) %MON time_secondsf                =   1.3880000000000E+05
(PID.TID 0000.0001) %MON dynstat_eta_max              =   5.7997758085883E+00
(PID.TID 0000.0001) %MON dynstat_eta_min              =  -1.4191427774339E+01
(PID.TID 0000.0001) %MON dynstat_eta_mean             =  -2.5039408676554E+00
(PID.TID 0000.0001) %MON dynstat_eta_sd               =   4.9500248466246E+00
(PID.TID 0000.0001) %MON dynstat_eta_del2             =   2.0716478091172E-01
(PID.TID 0000.0001) %MON dynstat_uvel_max             =   1.1354698822734E-02
(PID.TID 0000.0001) %MON dynstat_uvel_min             =  -5.1906219423880E-02
(PID.TID 0000.0001) %MON dynstat_uvel_mean            =  -1.0855406389403E-07
(PID.TID 0000.0001) %MON dynstat_uvel_sd              =   1.4959676938520E-03
(PID.TID 0000.0001) %MON dynstat_uvel_del2            =   2.2529323330067E-06
(PID.TID 0000.0001) %MON dynstat_vvel_max             =   3.4689345452226E-02
(PID.TID 0000.0001) %MON dynstat_vvel_min             =  -1.7526113583131E-02
(PID.TID 0000.0001) %MON dynstat_vvel_mean            =   1.5141530541338E-05
(PID.TID 0000.0001) %MON dynstat_vvel_sd              =   8.0093180221369E-04
(PID.TID 0000.0001) %MON dynstat_vvel_del2            =   1.6566905494284E-06
(PID.TID 0000.0001) %MON dynstat_wvel_max             =   1.8909238467674E-03
(PID.TID 0000.0001) %MON dynstat_wvel_min             =  -1.8277169616466E-03
(PID.TID 0000.0001) %MON dynstat_wvel_mean            =   7.3128727397276E-09
(PID.TID 0000.0001) %MON dynstat_wvel_sd              =   3.0193953810274E-05
(PID.TID 0000.0001) %MON dynstat_wvel_del2            =   1.2224677093659E-07
(PID.TID 0000.0001) %MON dynstat_theta_max            =   1.2000000000000E+00
(PID.TID 0000.0001) %MON dynstat_theta_min            =  -1.0000000000000E+00
(PID.TID 0000.0001) %MON dynstat_theta_mean           =   5.6835527372903E-01
(PID.TID 0000.0001) %MON dynstat_theta_sd             =   8.6818110010124E-01
(PID.TID 0000.0001) %MON dynstat_theta_del2           =   5.2627121571343E-06
(PID.TID 0000.0001) %MON dynstat_salt_max             =   3.4700000000000E+01
(PID.TID 0000.0001) %MON dynstat_salt_min             =   3.4000000000000E+01
(PID.TID 0000.0001) %MON dynstat_salt_mean            =   3.4498956182131E+01
(PID.TID 0000.0001) %MON dynstat_salt_sd              =   2.7621303230776E-01
(PID.TID 0000.0001) %MON dynstat_salt_del2            =   2.0847583030226E-06
(PID.TID 0000.0001) %MON advcfl_uvel_max              =   5.1906219423880E-03
(PID.TID 0000.0001) %MON advcfl_vvel_max              =   3.4689345452226E-03
(PID.TID 0000.0001) %MON advcfl_wvel_max              =   9.4546192338371E-03
(PID.TID 0000.0001) %MON advcfl_W_hf_max              =   9.4546192338371E-03
(PID.TID 0000.0001) %MON pe_b_mean                    =  -8.2965749906465E-01
(PID.TID 0000.0001) %MON ke_max                       =   1.1059792140876E-03
(PID.TID 0000.0001) %MON ke_mean                      =   1.4176229444984E-06
(PID.TID 0000.0001) %MON ke_vol                       =   4.2724666139587E+12
(PID.TID 0000.0001) // =======================================================
(PID.TID 0000.0001) // End MONITOR dynamic field statistics
(PID.TID 0000.0001) // =======================================================
(PID.TID 0000.0001) // =======================================================
(PID.TID 0000.0001) // Begin OBCS MONITOR field statistics
(PID.TID 0000.0001) // =======================================================
(PID.TID 0000.0001) %MON obc_N_vVel_max               =   1.4840796906771E-05
(PID.TID 0000.0001) %MON obc_N_vVel_min               =   1.4840796906771E-05
(PID.TID 0000.0001) %MON obc_N_vVel_mean              =   1.4840796906771E-05
(PID.TID 0000.0001) %MON obc_N_vVel_sd                =   3.9316583901815E-12
(PID.TID 0000.0001) %MON obc_N_vVel_Int               =   9.7949259584689E+02
(PID.TID 0000.0001) // =======================================================
(PID.TID 0000.0001) // End OBCS MONITOR field statistics
(PID.TID 0000.0001) // =======================================================
 cg2d: Sum(rhs),rhsMax =   4.50770383368764E+00  2.99959841829958E+02
(PID.TID 0000.0001)      cg2d_init_res =   1.01786076222922E-05
(PID.TID 0000.0001)      cg2d_iters(min,last) =      -1      84
(PID.TID 0000.0001)      cg2d_last_res =   9.36156633203029E-12
(PID.TID 0000.0001) // =======================================================
(PID.TID 0000.0001) // Begin MONITOR dynamic field statistics
(PID.TID 0000.0001) // =======================================================
(PID.TID 0000.0001) %MON time_tsnumber                =                  1389
(PID.TID 0000.0001) %MON time_secondsf                =   1.3890000000000E+05
(PID.TID 0000.0001) %MON dynstat_eta_max              =   5.7998012089675E+00
(PID.TID 0000.0001) %MON dynstat_eta_min              =  -1.4191457369772E+01
(PID.TID 0000.0001) %MON dynstat_eta_mean             =  -2.5039446832764E+00
(PID.TID 0000.0001) %MON dynstat_eta_sd               =   4.9500266642731E+00
(PID.TID 0000.0001) %MON dynstat_eta_del2             =   2.0716483178765E-01
(PID.TID 0000.0001) %MON dynstat_uvel_max             =   1.1381114129531E-02
(PID.TID 0000.0001) %MON dynstat_uvel_min             =  -5.2017804934157E-02
(PID.TID 0000.0001) %MON dynstat_uvel_mean            =  -1.0856787968189E-07
(PID.TID 0000.0001) %MON dynstat_uvel_sd              =   1.4992908131912E-03
(PID.TID 0000.0001) %MON dynstat_uvel_del2            =   2.2584019783046E-06
(PID.TID 0000.0001) %MON dynstat_vvel_max             =   3.4739389299575E-02
(PID.TID 0000.0001) %MON dynstat_vvel_min             =  -1.7568924999390E-02
(PID.TID 0000.0001) %MON dynstat_vvel_mean            =   1.5156899388135E-05
(PID.TID 0000.0001) %MON dynstat_vvel_sd              =   8.0246590342923E-04
(PID.TID 0000.0001) %MON dynstat_vvel_del2            =   1.6599727896498E-06
(PID.TID 0000.0001) %MON dynstat_wvel_max             =   1.8941080526891E-03
(PID.TID 0000.0001) %MON dynstat_wvel_min             =  -1.8309325765035E-03
(PID.TID 0000.0001) %MON dynstat_wvel_mean            =   7.3388484030092E-09
(PID.TID 0000.0001) %MON dynstat_wvel_sd              =   3.0232083476277E-05
(PID.TID 0000.0001) %MON dynstat_wvel_del2            =   1.2244010849627E-07
(PID.TID 0000.0001) %MON dynstat_theta_max            =   1.2000000000000E+00
(PID.TID 0000.0001) %MON dynstat_theta_min            =  -1.0000000000000E+00
(PID.TID 0000.0001) %MON dynstat_theta_mean           =   5.6835375763218E-01
(PID.TID 0000.0001) %MON dynstat_theta_sd             =   8.6818030368610E-01
(PID.TID 0000.0001) %MON dynstat_theta_del2           =   5.2727702735082E-06
(PID.TID 0000.0001) %MON dynstat_salt_max             =   3.4700000000000E+01
(PID.TID 0000.0001) %MON dynstat_salt_min             =   3.4000000000000E+01
(PID.TID 0000.0001) %MON dynstat_salt_mean            =   3.4498955575369E+01
(PID.TID 0000.0001) %MON dynstat_salt_sd              =   2.7621272723067E-01
(PID.TID 0000.0001) %MON dynstat_salt_del2            =   2.0887546309824E-06
(PID.TID 0000.0001) %MON advcfl_uvel_max              =   5.2017804934157E-03
(PID.TID 0000.0001) %MON advcfl_vvel_max              =   3.4739389299575E-03
(PID.TID 0000.0001) %MON advcfl_wvel_max              =   9.4705402634453E-03
(PID.TID 0000.0001) %MON advcfl_W_hf_max              =   9.4705402634453E-03
(PID.TID 0000.0001) %MON pe_b_mean                    =  -8.2965795600626E-01
(PID.TID 0000.0001) %MON ke_max                       =   1.1112009588272E-03
(PID.TID 0000.0001) %MON ke_mean                      =   1.4237311584881E-06
(PID.TID 0000.0001) %MON ke_vol                       =   4.2724665912461E+12
(PID.TID 0000.0001) // =======================================================
(PID.TID 0000.0001) // End MONITOR dynamic field statistics
(PID.TID 0000.0001) // =======================================================
(PID.TID 0000.0001) // =======================================================
(PID.TID 0000.0001) // Begin OBCS MONITOR field statistics
(PID.TID 0000.0001) // =======================================================
(PID.TID 0000.0001) %MON obc_N_vVel_max               =   1.4853619684442E-05
(PID.TID 0000.0001) %MON obc_N_vVel_min               =   1.4853619684441E-05
(PID.TID 0000.0001) %MON obc_N_vVel_mean              =   1.4853619684442E-05
(PID.TID 0000.0001) %MON obc_N_vVel_sd                =  -5.5834691347329E-24
(PID.TID 0000.0001) %MON obc_N_vVel_Int               =   9.8033889917315E+02
(PID.TID 0000.0001) // =======================================================
(PID.TID 0000.0001) // End OBCS MONITOR field statistics
(PID.TID 0000.0001) // =======================================================
 cg2d: Sum(rhs),rhsMax =   4.50770955310605E+00  2.99959917453336E+02
(PID.TID 0000.0001)      cg2d_init_res =   1.01972727883142E-05
(PID.TID 0000.0001)      cg2d_iters(min,last) =      -1      84
(PID.TID 0000.0001)      cg2d_last_res =   9.37587523058176E-12
(PID.TID 0000.0001) // =======================================================
(PID.TID 0000.0001) // Begin MONITOR dynamic field statistics
(PID.TID 0000.0001) // =======================================================
(PID.TID 0000.0001) %MON time_tsnumber                =                  1390
(PID.TID 0000.0001) %MON time_secondsf                =   1.3900000000000E+05
(PID.TID 0000.0001) %MON dynstat_eta_max              =   5.7998266737561E+00
(PID.TID 0000.0001) %MON dynstat_eta_min              =  -1.4191486982516E+01
(PID.TID 0000.0001) %MON dynstat_eta_mean             =  -2.5039484915802E+00
(PID.TID 0000.0001) %MON dynstat_eta_sd               =   4.9500284808371E+00
(PID.TID 0000.0001) %MON dynstat_eta_del2             =   2.0716488274395E-01
(PID.TID 0000.0001) %MON dynstat_uvel_max             =   1.1407574954934E-02
(PID.TID 0000.0001) %MON dynstat_uvel_min             =  -5.2129507174969E-02
(PID.TID 0000.0001) %MON dynstat_uvel_mean            =  -1.0856688406100E-07
(PID.TID 0000.0001) %MON dynstat_uvel_sd              =   1.5026202057846E-03
(PID.TID 0000.0001) %MON dynstat_uvel_del2            =   2.2638849357859E-06
(PID.TID 0000.0001) %MON dynstat_vvel_max             =   3.4789413139524E-02
(PID.TID 0000.0001) %MON dynstat_vvel_min             =  -1.7611824706885E-02
(PID.TID 0000.0001) %MON dynstat_vvel_mean            =   1.5172858637828E-05
(PID.TID 0000.0001) %MON dynstat_vvel_sd              =   8.0400413791821E-04
(PID.TID 0000.0001) %MON dynstat_vvel_del2            =   1.6632601595384E-06
(PID.TID 0000.0001) %MON dynstat_wvel_max             =   1.8972920338477E-03
(PID.TID 0000.0001) %MON dynstat_wvel_min             =  -1.8341493118571E-03
(PID.TID 0000.0001) %MON dynstat_wvel_mean            =   7.3632841648777E-09
(PID.TID 0000.0001) %MON dynstat_wvel_sd              =   3.0271681268503E-05
(PID.TID 0000.0001) %MON dynstat_wvel_del2            =   1.2263135566838E-07
(PID.TID 0000.0001) %MON dynstat_theta_max            =   1.2000000000000E+00
(PID.TID 0000.0001) %MON dynstat_theta_min            =  -1.0000000000000E+00
(PID.TID 0000.0001) %MON dynstat_theta_mean           =   5.6835223879747E-01
(PID.TID 0000.0001) %MON dynstat_theta_sd             =   8.6817950607498E-01
(PID.TID 0000.0001) %MON dynstat_theta_del2           =   5.2828450145269E-06
(PID.TID 0000.0001) %MON dynstat_salt_max             =   3.4700000000000E+01
(PID.TID 0000.0001) %MON dynstat_salt_min             =   3.4000000000000E+01
(PID.TID 0000.0001) %MON dynstat_salt_mean            =   3.4498954967517E+01
(PID.TID 0000.0001) %MON dynstat_salt_sd              =   2.7621242170632E-01
(PID.TID 0000.0001) %MON dynstat_salt_del2            =   2.0927562478286E-06
(PID.TID 0000.0001) %MON advcfl_uvel_max              =   5.2129507174969E-03
(PID.TID 0000.0001) %MON advcfl_vvel_max              =   3.4789413139524E-03
(PID.TID 0000.0001) %MON advcfl_wvel_max              =   9.4864601692384E-03
(PID.TID 0000.0001) %MON advcfl_W_hf_max              =   9.4864601692384E-03
(PID.TID 0000.0001) %MON pe_b_mean                    =  -8.2965840921337E-01
(PID.TID 0000.0001) %MON ke_max                       =   1.1164416592585E-03
(PID.TID 0000.0001) %MON ke_mean                      =   1.4298651216131E-06
(PID.TID 0000.0001) %MON ke_vol                       =   4.2724665685813E+12
(PID.TID 0000.0001) // =======================================================
(PID.TID 0000.0001) // End MONITOR dynamic field statistics
(PID.TID 0000.0001) // =======================================================
(PID.TID 0000.0001) // =======================================================
(PID.TID 0000.0001) // Begin OBCS MONITOR field statistics
(PID.TID 0000.0001) // =======================================================
(PID.TID 0000.0001) %MON obc_N_vVel_max               =   1.4867133883450E-05
(PID.TID 0000.0001) %MON obc_N_vVel_min               =   1.4867133883450E-05
(PID.TID 0000.0001) %MON obc_N_vVel_mean              =   1.4867133883450E-05
(PID.TID 0000.0001) %MON obc_N_vVel_sd                =  -6.1780052000054E-24
(PID.TID 0000.0001) %MON obc_N_vVel_Int               =   9.8123083630771E+02
(PID.TID 0000.0001) // =======================================================
(PID.TID 0000.0001) // End OBCS MONITOR field statistics
(PID.TID 0000.0001) // =======================================================
 cg2d: Sum(rhs),rhsMax =   4.50771525727710E+00  2.99959993267046E+02
(PID.TID 0000.0001)      cg2d_init_res =   1.02153860146889E-05
(PID.TID 0000.0001)      cg2d_iters(min,last) =      -1      84
(PID.TID 0000.0001)      cg2d_last_res =   9.38896868709773E-12
(PID.TID 0000.0001) // =======================================================
(PID.TID 0000.0001) // Begin MONITOR dynamic field statistics
(PID.TID 0000.0001) // =======================================================
(PID.TID 0000.0001) %MON time_tsnumber                =                  1391
(PID.TID 0000.0001) %MON time_secondsf                =   1.3910000000000E+05
(PID.TID 0000.0001) %MON dynstat_eta_max              =   5.7998522027497E+00
(PID.TID 0000.0001) %MON dynstat_eta_min              =  -1.4191516612975E+01
(PID.TID 0000.0001) %MON dynstat_eta_mean             =  -2.5039522930048E+00
(PID.TID 0000.0001) %MON dynstat_eta_sd               =   4.9500302962121E+00
(PID.TID 0000.0001) %MON dynstat_eta_del2             =   2.0716493378025E-01
(PID.TID 0000.0001) %MON dynstat_uvel_max             =   1.1434081350664E-02
(PID.TID 0000.0001) %MON dynstat_uvel_min             =  -5.2241325603289E-02
(PID.TID 0000.0001) %MON dynstat_uvel_mean            =  -1.0855058886678E-07
(PID.TID 0000.0001) %MON dynstat_uvel_sd              =   1.5059558717279E-03
(PID.TID 0000.0001) %MON dynstat_uvel_del2            =   2.2693812348357E-06
(PID.TID 0000.0001) %MON dynstat_vvel_max             =   3.4839416676391E-02
(PID.TID 0000.0001) %MON dynstat_vvel_min             =  -1.7654812845240E-02
(PID.TID 0000.0001) %MON dynstat_vvel_mean            =   1.5189099502137E-05
(PID.TID 0000.0001) %MON dynstat_vvel_sd              =   8.0554665145451E-04
(PID.TID 0000.0001) %MON dynstat_vvel_del2            =   1.6665523231884E-06
(PID.TID 0000.0001) %MON dynstat_wvel_max             =   1.9004757702627E-03
(PID.TID 0000.0001) %MON dynstat_wvel_min             =  -1.8373671521263E-03
(PID.TID 0000.0001) %MON dynstat_wvel_mean            =   7.3857354042281E-09
(PID.TID 0000.0001) %MON dynstat_wvel_sd              =   3.0312769521376E-05
(PID.TID 0000.0001) %MON dynstat_wvel_del2            =   1.2281881620423E-07
(PID.TID 0000.0001) %MON dynstat_theta_max            =   1.2000000000000E+00
(PID.TID 0000.0001) %MON dynstat_theta_min            =  -1.0000000000000E+00
(PID.TID 0000.0001) %MON dynstat_theta_mean           =   5.6835071722504E-01
(PID.TID 0000.0001) %MON dynstat_theta_sd             =   8.6817870726469E-01
(PID.TID 0000.0001) %MON dynstat_theta_del2           =   5.2929351629427E-06
(PID.TID 0000.0001) %MON dynstat_salt_max             =   3.4700000000000E+01
(PID.TID 0000.0001) %MON dynstat_salt_min             =   3.4000000000000E+01
(PID.TID 0000.0001) %MON dynstat_salt_mean            =   3.4498954358574E+01
(PID.TID 0000.0001) %MON dynstat_salt_sd              =   2.7621211573510E-01
(PID.TID 0000.0001) %MON dynstat_salt_del2            =   2.0967658047677E-06
(PID.TID 0000.0001) %MON advcfl_uvel_max              =   5.2241325603289E-03
(PID.TID 0000.0001) %MON advcfl_vvel_max              =   3.4839416676391E-03
(PID.TID 0000.0001) %MON advcfl_wvel_max              =   9.5023788513134E-03
(PID.TID 0000.0001) %MON advcfl_W_hf_max              =   9.5023788513134E-03
(PID.TID 0000.0001) %MON pe_b_mean                    =  -8.2965885872253E-01
(PID.TID 0000.0001) %MON ke_max                       =   1.1217013439150E-03
(PID.TID 0000.0001) %MON ke_mean                      =   1.4360250272894E-06
(PID.TID 0000.0001) %MON ke_vol                       =   4.2724665459600E+12
(PID.TID 0000.0001) // =======================================================
(PID.TID 0000.0001) // End MONITOR dynamic field statistics
(PID.TID 0000.0001) // =======================================================
(PID.TID 0000.0001) // =======================================================
(PID.TID 0000.0001) // Begin OBCS MONITOR field statistics
(PID.TID 0000.0001) // =======================================================
(PID.TID 0000.0001) %MON obc_N_vVel_max               =   1.4881075502755E-05
(PID.TID 0000.0001) %MON obc_N_vVel_min               =   1.4881075502755E-05
(PID.TID 0000.0001) %MON obc_N_vVel_mean              =   1.4881075502755E-05
(PID.TID 0000.0001) %MON obc_N_vVel_sd                =   4.4001359311468E-12
(PID.TID 0000.0001) %MON obc_N_vVel_Int               =   9.8215098318180E+02
(PID.TID 0000.0001) // =======================================================
(PID.TID 0000.0001) // End OBCS MONITOR field statistics
(PID.TID 0000.0001) // =======================================================
 cg2d: Sum(rhs),rhsMax =   4.50772094668430E+00  2.99960069255426E+02
(PID.TID 0000.0001)      cg2d_init_res =   1.02329118259376E-05
(PID.TID 0000.0001)      cg2d_iters(min,last) =      -1      84
(PID.TID 0000.0001)      cg2d_last_res =   9.40080161515378E-12
(PID.TID 0000.0001) // =======================================================
(PID.TID 0000.0001) // Begin MONITOR dynamic field statistics
(PID.TID 0000.0001) // =======================================================
(PID.TID 0000.0001) %MON time_tsnumber                =                  1392
(PID.TID 0000.0001) %MON time_secondsf                =   1.3920000000000E+05
(PID.TID 0000.0001) %MON dynstat_eta_max              =   5.7998777963528E+00
(PID.TID 0000.0001) %MON dynstat_eta_min              =  -1.4191546261231E+01
(PID.TID 0000.0001) %MON dynstat_eta_mean             =  -2.5039560876881E+00
(PID.TID 0000.0001) %MON dynstat_eta_sd               =   4.9500321102107E+00
(PID.TID 0000.0001) %MON dynstat_eta_del2             =   2.0716498489756E-01
(PID.TID 0000.0001) %MON dynstat_uvel_max             =   1.1460633367754E-02
(PID.TID 0000.0001) %MON dynstat_uvel_min             =  -5.2353259670241E-02
(PID.TID 0000.0001) %MON dynstat_uvel_mean            =  -1.0851881047718E-07
(PID.TID 0000.0001) %MON dynstat_uvel_sd              =   1.5092978113622E-03
(PID.TID 0000.0001) %MON dynstat_uvel_del2            =   2.2748909049485E-06
(PID.TID 0000.0001) %MON dynstat_vvel_max             =   3.4889399614224E-02
(PID.TID 0000.0001) %MON dynstat_vvel_min             =  -1.7697889552844E-02
(PID.TID 0000.0001) %MON dynstat_vvel_mean            =   1.5205310002939E-05
(PID.TID 0000.0001) %MON dynstat_vvel_sd              =   8.0709357292463E-04
(PID.TID 0000.0001) %MON dynstat_vvel_del2            =   1.6698490509399E-06
(PID.TID 0000.0001) %MON dynstat_wvel_max             =   1.9036592419288E-03
(PID.TID 0000.0001) %MON dynstat_wvel_min             =  -1.8405860814379E-03
(PID.TID 0000.0001) %MON dynstat_wvel_mean            =   7.4057991705608E-09
(PID.TID 0000.0001) %MON dynstat_wvel_sd              =   3.0355396109013E-05
(PID.TID 0000.0001) %MON dynstat_wvel_del2            =   1.2300121528417E-07
(PID.TID 0000.0001) %MON dynstat_theta_max            =   1.2000000000000E+00
(PID.TID 0000.0001) %MON dynstat_theta_min            =  -1.0000000000000E+00
(PID.TID 0000.0001) %MON dynstat_theta_mean           =   5.6834919291503E-01
(PID.TID 0000.0001) %MON dynstat_theta_sd             =   8.6817790725043E-01
(PID.TID 0000.0001) %MON dynstat_theta_del2           =   5.3030382309351E-06
(PID.TID 0000.0001) %MON dynstat_salt_max             =   3.4700000000000E+01
(PID.TID 0000.0001) %MON dynstat_salt_min             =   3.4000000000000E+01
(PID.TID 0000.0001) %MON dynstat_salt_mean            =   3.4498953748539E+01
(PID.TID 0000.0001) %MON dynstat_salt_sd              =   2.7621180931456E-01
(PID.TID 0000.0001) %MON dynstat_salt_del2            =   2.1007807416126E-06
(PID.TID 0000.0001) %MON advcfl_uvel_max              =   5.2353259670241E-03
(PID.TID 0000.0001) %MON advcfl_vvel_max              =   3.4889399614224E-03
(PID.TID 0000.0001) %MON advcfl_wvel_max              =   9.5182962096438E-03
(PID.TID 0000.0001) %MON advcfl_W_hf_max              =   9.5182962096438E-03
(PID.TID 0000.0001) %MON pe_b_mean                    =  -8.2965930449141E-01
(PID.TID 0000.0001) %MON ke_max                       =   1.1269800412453E-03
(PID.TID 0000.0001) %MON ke_mean                      =   1.4422110566704E-06
(PID.TID 0000.0001) %MON ke_vol                       =   4.2724665233796E+12
(PID.TID 0000.0001) // =======================================================
(PID.TID 0000.0001) // End MONITOR dynamic field statistics
(PID.TID 0000.0001) // =======================================================
(PID.TID 0000.0001) // =======================================================
(PID.TID 0000.0001) // Begin OBCS MONITOR field statistics
(PID.TID 0000.0001) // =======================================================
(PID.TID 0000.0001) %MON obc_N_vVel_max               =   1.4895174194411E-05
(PID.TID 0000.0001) %MON obc_N_vVel_min               =   1.4895174194410E-05
(PID.TID 0000.0001) %MON obc_N_vVel_mean              =   1.4895174194410E-05
(PID.TID 0000.0001) %MON obc_N_vVel_sd                =   3.5444048235422E-12
(PID.TID 0000.0001) %MON obc_N_vVel_Int               =   9.8308149683109E+02
(PID.TID 0000.0001) // =======================================================
(PID.TID 0000.0001) // End OBCS MONITOR field statistics
(PID.TID 0000.0001) // =======================================================
 cg2d: Sum(rhs),rhsMax =   4.50772662131362E+00  2.99960145399811E+02
(PID.TID 0000.0001)      cg2d_init_res =   1.02496329152289E-05
(PID.TID 0000.0001)      cg2d_iters(min,last) =      -1      84
(PID.TID 0000.0001)      cg2d_last_res =   9.41135774078737E-12
(PID.TID 0000.0001) // =======================================================
(PID.TID 0000.0001) // Begin MONITOR dynamic field statistics
(PID.TID 0000.0001) // =======================================================
(PID.TID 0000.0001) %MON time_tsnumber                =                  1393
(PID.TID 0000.0001) %MON time_secondsf                =   1.3930000000000E+05
(PID.TID 0000.0001) %MON dynstat_eta_max              =   5.7999034555599E+00
(PID.TID 0000.0001) %MON dynstat_eta_min              =  -1.4191575927034E+01
(PID.TID 0000.0001) %MON dynstat_eta_mean             =  -2.5039598754664E+00
(PID.TID 0000.0001) %MON dynstat_eta_sd               =   4.9500339225195E+00
(PID.TID 0000.0001) %MON dynstat_eta_del2             =   2.0716503609447E-01
(PID.TID 0000.0001) %MON dynstat_uvel_max             =   1.1487231056307E-02
(PID.TID 0000.0001) %MON dynstat_uvel_min             =  -5.2465308821964E-02
(PID.TID 0000.0001) %MON dynstat_uvel_mean            =  -1.0847166916822E-07
(PID.TID 0000.0001) %MON dynstat_uvel_sd              =   1.5126460255426E-03
(PID.TID 0000.0001) %MON dynstat_uvel_del2            =   2.2804139754697E-06
(PID.TID 0000.0001) %MON dynstat_vvel_max             =   3.4939361658146E-02
(PID.TID 0000.0001) %MON dynstat_vvel_min             =  -1.7741054965622E-02
(PID.TID 0000.0001) %MON dynstat_vvel_mean            =   1.5221181331196E-05
(PID.TID 0000.0001) %MON dynstat_vvel_sd              =   8.0864501440871E-04
(PID.TID 0000.0001) %MON dynstat_vvel_del2            =   1.6731502366780E-06
(PID.TID 0000.0001) %MON dynstat_wvel_max             =   1.9068424288532E-03
(PID.TID 0000.0001) %MON dynstat_wvel_min             =  -1.8438060839494E-03
(PID.TID 0000.0001) %MON dynstat_wvel_mean            =   7.4231262540108E-09
(PID.TID 0000.0001) %MON dynstat_wvel_sd              =   3.0399646175919E-05
(PID.TID 0000.0001) %MON dynstat_wvel_del2            =   1.2317783187187E-07
(PID.TID 0000.0001) %MON dynstat_theta_max            =   1.2000000000000E+00
(PID.TID 0000.0001) %MON dynstat_theta_min            =  -1.0000000000000E+00
(PID.TID 0000.0001) %MON dynstat_theta_mean           =   5.6834766586758E-01
(PID.TID 0000.0001) %MON dynstat_theta_sd             =   8.6817710602824E-01
(PID.TID 0000.0001) %MON dynstat_theta_del2           =   5.3131541806872E-06
(PID.TID 0000.0001) %MON dynstat_salt_max             =   3.4700000000000E+01
(PID.TID 0000.0001) %MON dynstat_salt_min             =   3.4000000000000E+01
(PID.TID 0000.0001) %MON dynstat_salt_mean            =   3.4498953137413E+01
(PID.TID 0000.0001) %MON dynstat_salt_sd              =   2.7621150244339E-01
(PID.TID 0000.0001) %MON dynstat_salt_del2            =   2.1048006106967E-06
(PID.TID 0000.0001) %MON advcfl_uvel_max              =   5.2465308821964E-03
(PID.TID 0000.0001) %MON advcfl_vvel_max              =   3.4939361658146E-03
(PID.TID 0000.0001) %MON advcfl_wvel_max              =   9.5342121442660E-03
(PID.TID 0000.0001) %MON advcfl_W_hf_max              =   9.5342121442660E-03
(PID.TID 0000.0001) %MON pe_b_mean                    =  -8.2965974639987E-01
(PID.TID 0000.0001) %MON ke_max                       =   1.1322777796413E-03
(PID.TID 0000.0001) %MON ke_mean                      =   1.4484233790854E-06
(PID.TID 0000.0001) %MON ke_vol                       =   4.2724665008391E+12
(PID.TID 0000.0001) // =======================================================
(PID.TID 0000.0001) // End MONITOR dynamic field statistics
(PID.TID 0000.0001) // =======================================================
(PID.TID 0000.0001) // =======================================================
(PID.TID 0000.0001) // Begin OBCS MONITOR field statistics
(PID.TID 0000.0001) // =======================================================
(PID.TID 0000.0001) %MON obc_N_vVel_max               =   1.4909158687642E-05
(PID.TID 0000.0001) %MON obc_N_vVel_min               =   1.4909158687642E-05
(PID.TID 0000.0001) %MON obc_N_vVel_mean              =   1.4909158687642E-05
(PID.TID 0000.0001) %MON obc_N_vVel_sd                =   4.6403173728228E-12
(PID.TID 0000.0001) %MON obc_N_vVel_Int               =   9.8400447338435E+02
(PID.TID 0000.0001) // =======================================================
(PID.TID 0000.0001) // End OBCS MONITOR field statistics
(PID.TID 0000.0001) // =======================================================
 cg2d: Sum(rhs),rhsMax =   4.50773228065639E+00  2.99960221678975E+02
(PID.TID 0000.0001)      cg2d_init_res =   1.02655336160041E-05
(PID.TID 0000.0001)      cg2d_iters(min,last) =      -1      84
(PID.TID 0000.0001)      cg2d_last_res =   9.42063763219457E-12
(PID.TID 0000.0001) // =======================================================
(PID.TID 0000.0001) // Begin MONITOR dynamic field statistics
(PID.TID 0000.0001) // =======================================================
(PID.TID 0000.0001) %MON time_tsnumber                =                  1394
(PID.TID 0000.0001) %MON time_secondsf                =   1.3940000000000E+05
(PID.TID 0000.0001) %MON dynstat_eta_max              =   5.7999291819408E+00
(PID.TID 0000.0001) %MON dynstat_eta_min              =  -1.4191605609820E+01
(PID.TID 0000.0001) %MON dynstat_eta_mean             =  -2.5039636558799E+00
(PID.TID 0000.0001) %MON dynstat_eta_sd               =   4.9500357327441E+00
(PID.TID 0000.0001) %MON dynstat_eta_del2             =   2.0716508737022E-01
(PID.TID 0000.0001) %MON dynstat_uvel_max             =   1.1513870776351E-02
(PID.TID 0000.0001) %MON dynstat_uvel_min             =  -5.2577472498736E-02
(PID.TID 0000.0001) %MON dynstat_uvel_mean            =  -1.0840960796970E-07
(PID.TID 0000.0001) %MON dynstat_uvel_sd              =   1.5160005155771E-03
(PID.TID 0000.0001) %MON dynstat_uvel_del2            =   2.2859504739712E-06
(PID.TID 0000.0001) %MON dynstat_vvel_max             =   3.4989302515537E-02
(PID.TID 0000.0001) %MON dynstat_vvel_min             =  -1.7784309199200E-02
(PID.TID 0000.0001) %MON dynstat_vvel_mean            =   1.5236413912073E-05
(PID.TID 0000.0001) %MON dynstat_vvel_sd              =   8.1020107009548E-04
(PID.TID 0000.0001) %MON dynstat_vvel_del2            =   1.6764559115786E-06
(PID.TID 0000.0001) %MON dynstat_wvel_max             =   1.9100253109982E-03
(PID.TID 0000.0001) %MON dynstat_wvel_min             =  -1.8470271431532E-03
(PID.TID 0000.0001) %MON dynstat_wvel_mean            =   7.4374243086586E-09
(PID.TID 0000.0001) %MON dynstat_wvel_sd              =   3.0445647680407E-05
(PID.TID 0000.0001) %MON dynstat_wvel_del2            =   1.2334858112274E-07
(PID.TID 0000.0001) %MON dynstat_theta_max            =   1.2000000000000E+00
(PID.TID 0000.0001) %MON dynstat_theta_min            =  -1.0000000000000E+00
(PID.TID 0000.0001) %MON dynstat_theta_mean           =   5.6834613608284E-01
(PID.TID 0000.0001) %MON dynstat_theta_sd             =   8.6817630359292E-01
(PID.TID 0000.0001) %MON dynstat_theta_del2           =   5.3232809099652E-06
(PID.TID 0000.0001) %MON dynstat_salt_max             =   3.4700000000000E+01
(PID.TID 0000.0001) %MON dynstat_salt_min             =   3.4000000000000E+01
(PID.TID 0000.0001) %MON dynstat_salt_mean            =   3.4498952525195E+01
(PID.TID 0000.0001) %MON dynstat_salt_sd              =   2.7621119512008E-01
(PID.TID 0000.0001) %MON dynstat_salt_del2            =   2.1088255505585E-06
(PID.TID 0000.0001) %MON advcfl_uvel_max              =   5.2577472498736E-03
(PID.TID 0000.0001) %MON advcfl_vvel_max              =   3.4989302515537E-03
(PID.TID 0000.0001) %MON advcfl_wvel_max              =   9.5501265549909E-03
(PID.TID 0000.0001) %MON advcfl_W_hf_max              =   9.5501265549909E-03
(PID.TID 0000.0001) %MON pe_b_mean                    =  -8.2966018425299E-01
(PID.TID 0000.0001) %MON ke_max                       =   1.1375945874125E-03
(PID.TID 0000.0001) %MON ke_mean                      =   1.4546621510469E-06
(PID.TID 0000.0001) %MON ke_vol                       =   4.2724664783397E+12
(PID.TID 0000.0001) // =======================================================
(PID.TID 0000.0001) // End MONITOR dynamic field statistics
(PID.TID 0000.0001) // =======================================================
(PID.TID 0000.0001) // =======================================================
(PID.TID 0000.0001) // Begin OBCS MONITOR field statistics
(PID.TID 0000.0001) // =======================================================
(PID.TID 0000.0001) %MON obc_N_vVel_max               =   1.4922762134526E-05
(PID.TID 0000.0001) %MON obc_N_vVel_min               =   1.4922762134526E-05
(PID.TID 0000.0001) %MON obc_N_vVel_mean              =   1.4922762134526E-05
(PID.TID 0000.0001) %MON obc_N_vVel_sd                =  -1.1322034634320E-23
(PID.TID 0000.0001) %MON obc_N_vVel_Int               =   9.8490230087872E+02
(PID.TID 0000.0001) // =======================================================
(PID.TID 0000.0001) // End OBCS MONITOR field statistics
(PID.TID 0000.0001) // =======================================================
 cg2d: Sum(rhs),rhsMax =   4.50773792372023E+00  2.99960298069681E+02
(PID.TID 0000.0001)      cg2d_init_res =   1.02805751504082E-05
(PID.TID 0000.0001)      cg2d_iters(min,last) =      -1      84
(PID.TID 0000.0001)      cg2d_last_res =   9.42869778844905E-12
(PID.TID 0000.0001) // =======================================================
(PID.TID 0000.0001) // Begin MONITOR dynamic field statistics
(PID.TID 0000.0001) // =======================================================
(PID.TID 0000.0001) %MON time_tsnumber                =                  1395
(PID.TID 0000.0001) %MON time_secondsf                =   1.3950000000000E+05
(PID.TID 0000.0001) %MON dynstat_eta_max              =   5.7999549775993E+00
(PID.TID 0000.0001) %MON dynstat_eta_min              =  -1.4191635308742E+01
(PID.TID 0000.0001) %MON dynstat_eta_mean             =  -2.5039674281836E+00
(PID.TID 0000.0001) %MON dynstat_eta_sd               =   4.9500375404225E+00
(PID.TID 0000.0001) %MON dynstat_eta_del2             =   2.0716513872475E-01
(PID.TID 0000.0001) %MON dynstat_uvel_max             =   1.1540553102989E-02
(PID.TID 0000.0001) %MON dynstat_uvel_min             =  -5.2689750138099E-02
(PID.TID 0000.0001) %MON dynstat_uvel_mean            =  -1.0833331167540E-07
(PID.TID 0000.0001) %MON dynstat_uvel_sd              =   1.5193612833385E-03
(PID.TID 0000.0001) %MON dynstat_uvel_del2            =   2.2915004297046E-06
(PID.TID 0000.0001) %MON dynstat_vvel_max             =   3.5039221897408E-02
(PID.TID 0000.0001) %MON dynstat_vvel_min             =  -1.7827652365359E-02
(PID.TID 0000.0001) %MON dynstat_vvel_mean            =   1.5250723201298E-05
(PID.TID 0000.0001) %MON dynstat_vvel_sd              =   8.1176181477061E-04
(PID.TID 0000.0001) %MON dynstat_vvel_del2            =   1.6797662435215E-06
(PID.TID 0000.0001) %MON dynstat_wvel_max             =   1.9132078683367E-03
(PID.TID 0000.0001) %MON dynstat_wvel_min             =  -1.8502492438996E-03
(PID.TID 0000.0001) %MON dynstat_wvel_mean            =   7.4484585369980E-09
(PID.TID 0000.0001) %MON dynstat_wvel_sd              =   3.0493570248248E-05
(PID.TID 0000.0001) %MON dynstat_wvel_del2            =   1.2351404455220E-07
(PID.TID 0000.0001) %MON dynstat_theta_max            =   1.2000000000000E+00
(PID.TID 0000.0001) %MON dynstat_theta_min            =  -1.0000000000000E+00
(PID.TID 0000.0001) %MON dynstat_theta_mean           =   5.6834460356094E-01
(PID.TID 0000.0001) %MON dynstat_theta_sd             =   8.6817549994152E-01
(PID.TID 0000.0001) %MON dynstat_theta_del2           =   5.3334199800654E-06
(PID.TID 0000.0001) %MON dynstat_salt_max             =   3.4700000000000E+01
(PID.TID 0000.0001) %MON dynstat_salt_min             =   3.4000000000000E+01
(PID.TID 0000.0001) %MON dynstat_salt_mean            =   3.4498951911884E+01
(PID.TID 0000.0001) %MON dynstat_salt_sd              =   2.7621088734381E-01
(PID.TID 0000.0001) %MON dynstat_salt_del2            =   2.1128557887577E-06
(PID.TID 0000.0001) %MON advcfl_uvel_max              =   5.2689750138099E-03
(PID.TID 0000.0001) %MON advcfl_vvel_max              =   3.5039221897408E-03
(PID.TID 0000.0001) %MON advcfl_wvel_max              =   9.5660393416835E-03
(PID.TID 0000.0001) %MON advcfl_W_hf_max              =   9.5660393416835E-03
(PID.TID 0000.0001) %MON pe_b_mean                    =  -8.2966061778505E-01
(PID.TID 0000.0001) %MON ke_max                       =   1.1429304929119E-03
(PID.TID 0000.0001) %MON ke_mean                      =   1.4609275151519E-06
(PID.TID 0000.0001) %MON ke_vol                       =   4.2724664558841E+12
(PID.TID 0000.0001) // =======================================================
(PID.TID 0000.0001) // End MONITOR dynamic field statistics
(PID.TID 0000.0001) // =======================================================
(PID.TID 0000.0001) // =======================================================
(PID.TID 0000.0001) // Begin OBCS MONITOR field statistics
(PID.TID 0000.0001) // =======================================================
(PID.TID 0000.0001) %MON obc_N_vVel_max               =   1.4935727407058E-05
(PID.TID 0000.0001) %MON obc_N_vVel_min               =   1.4935727407058E-05
(PID.TID 0000.0001) %MON obc_N_vVel_mean              =   1.4935727407058E-05
(PID.TID 0000.0001) %MON obc_N_vVel_sd                =  -1.1244486451893E-23
(PID.TID 0000.0001) %MON obc_N_vVel_Int               =   9.8575800886584E+02
(PID.TID 0000.0001) // =======================================================
(PID.TID 0000.0001) // End OBCS MONITOR field statistics
(PID.TID 0000.0001) // =======================================================
 cg2d: Sum(rhs),rhsMax =   4.50774354905055E+00  2.99960374547203E+02
(PID.TID 0000.0001)      cg2d_init_res =   1.02947302578816E-05
(PID.TID 0000.0001)      cg2d_iters(min,last) =      -1      84
(PID.TID 0000.0001)      cg2d_last_res =   9.43558178273721E-12
(PID.TID 0000.0001) // =======================================================
(PID.TID 0000.0001) // Begin MONITOR dynamic field statistics
(PID.TID 0000.0001) // =======================================================
(PID.TID 0000.0001) %MON time_tsnumber                =                  1396
(PID.TID 0000.0001) %MON time_secondsf                =   1.3960000000000E+05
(PID.TID 0000.0001) %MON dynstat_eta_max              =   5.7999808451419E+00
(PID.TID 0000.0001) %MON dynstat_eta_min              =  -1.4191665022680E+01
(PID.TID 0000.0001) %MON dynstat_eta_mean             =  -2.5039711913628E+00
(PID.TID 0000.0001) %MON dynstat_eta_sd               =   4.9500393450159E+00
(PID.TID 0000.0001) %MON dynstat_eta_del2             =   2.0716519015760E-01
(PID.TID 0000.0001) %MON dynstat_uvel_max             =   1.1567277788844E-02
(PID.TID 0000.0001) %MON dynstat_uvel_min             =  -5.2802141174362E-02
(PID.TID 0000.0001) %MON dynstat_uvel_mean            =  -1.0824378013863E-07
(PID.TID 0000.0001) %MON dynstat_uvel_sd              =   1.5227283310798E-03
(PID.TID 0000.0001) %MON dynstat_uvel_del2            =   2.2970638727966E-06
(PID.TID 0000.0001) %MON dynstat_vvel_max             =   3.5089119519511E-02
(PID.TID 0000.0001) %MON dynstat_vvel_min             =  -1.7871084591064E-02
(PID.TID 0000.0001) %MON dynstat_vvel_mean            =   1.5263845278872E-05
(PID.TID 0000.0001) %MON dynstat_vvel_sd              =   8.1332730254669E-04
(PID.TID 0000.0001) %MON dynstat_vvel_del2            =   1.6830815237757E-06
(PID.TID 0000.0001) %MON dynstat_wvel_max             =   1.9163900797087E-03
(PID.TID 0000.0001) %MON dynstat_wvel_min             =  -1.8534723714229E-03
(PID.TID 0000.0001) %MON dynstat_wvel_mean            =   7.4560648653993E-09
(PID.TID 0000.0001) %MON dynstat_wvel_sd              =   3.0543617495627E-05
(PID.TID 0000.0001) %MON dynstat_wvel_del2            =   1.2367544530737E-07
(PID.TID 0000.0001) %MON dynstat_theta_max            =   1.2000000000000E+00
(PID.TID 0000.0001) %MON dynstat_theta_min            =  -1.0000000000000E+00
(PID.TID 0000.0001) %MON dynstat_theta_mean           =   5.6834306830197E-01
(PID.TID 0000.0001) %MON dynstat_theta_sd             =   8.6817469507057E-01
(PID.TID 0000.0001) %MON dynstat_theta_del2           =   5.3435712270134E-06
(PID.TID 0000.0001) %MON dynstat_salt_max             =   3.4700000000000E+01
(PID.TID 0000.0001) %MON dynstat_salt_min             =   3.4000000000000E+01
(PID.TID 0000.0001) %MON dynstat_salt_mean            =   3.4498951297481E+01
(PID.TID 0000.0001) %MON dynstat_salt_sd              =   2.7621057911333E-01
(PID.TID 0000.0001) %MON dynstat_salt_del2            =   2.1168911251597E-06
(PID.TID 0000.0001) %MON advcfl_uvel_max              =   5.2802141174362E-03
(PID.TID 0000.0001) %MON advcfl_vvel_max              =   3.5089119519511E-03
(PID.TID 0000.0001) %MON advcfl_wvel_max              =   9.5819503985433E-03
(PID.TID 0000.0001) %MON advcfl_W_hf_max              =   9.5819503985433E-03
(PID.TID 0000.0001) %MON pe_b_mean                    =  -8.2966104666521E-01
(PID.TID 0000.0001) %MON ke_max                       =   1.1482855245186E-03
(PID.TID 0000.0001) %MON ke_mean                      =   1.4672195987244E-06
(PID.TID 0000.0001) %MON ke_vol                       =   4.2724664334766E+12
(PID.TID 0000.0001) // =======================================================
(PID.TID 0000.0001) // End MONITOR dynamic field statistics
(PID.TID 0000.0001) // =======================================================
(PID.TID 0000.0001) // =======================================================
(PID.TID 0000.0001) // Begin OBCS MONITOR field statistics
(PID.TID 0000.0001) // =======================================================
(PID.TID 0000.0001) %MON obc_N_vVel_max               =   1.4947812102016E-05
(PID.TID 0000.0001) %MON obc_N_vVel_min               =   1.4947812102015E-05
(PID.TID 0000.0001) %MON obc_N_vVel_mean              =   1.4947812102016E-05
(PID.TID 0000.0001) %MON obc_N_vVel_sd                =  -1.1787323728881E-23
(PID.TID 0000.0001) %MON obc_N_vVel_Int               =   9.8655559873305E+02
(PID.TID 0000.0001) // =======================================================
(PID.TID 0000.0001) // End OBCS MONITOR field statistics
(PID.TID 0000.0001) // =======================================================
 cg2d: Sum(rhs),rhsMax =   4.50774915476122E+00  2.99960451085877E+02
(PID.TID 0000.0001)      cg2d_init_res =   1.03079884019028E-05
(PID.TID 0000.0001)      cg2d_iters(min,last) =      -1      84
(PID.TID 0000.0001)      cg2d_last_res =   9.44134306434140E-12
(PID.TID 0000.0001) // =======================================================
(PID.TID 0000.0001) // Begin MONITOR dynamic field statistics
(PID.TID 0000.0001) // =======================================================
(PID.TID 0000.0001) %MON time_tsnumber                =                  1397
(PID.TID 0000.0001) %MON time_secondsf                =   1.3970000000000E+05
(PID.TID 0000.0001) %MON dynstat_eta_max              =   5.8000067876140E+00
(PID.TID 0000.0001) %MON dynstat_eta_min              =  -1.4191694750283E+01
(PID.TID 0000.0001) %MON dynstat_eta_mean             =  -2.5039749441558E+00
(PID.TID 0000.0001) %MON dynstat_eta_sd               =   4.9500411459242E+00
(PID.TID 0000.0001) %MON dynstat_eta_del2             =   2.0716524166814E-01
(PID.TID 0000.0001) %MON dynstat_uvel_max             =   1.1594044772451E-02
(PID.TID 0000.0001) %MON dynstat_uvel_min             =  -5.2914645037682E-02
(PID.TID 0000.0001) %MON dynstat_uvel_mean            =  -1.0814227860015E-07
(PID.TID 0000.0001) %MON dynstat_uvel_sd              =   1.5261016615925E-03
(PID.TID 0000.0001) %MON dynstat_uvel_del2            =   2.3026408355015E-06
(PID.TID 0000.0001) %MON dynstat_vvel_max             =   3.5138995103342E-02
(PID.TID 0000.0001) %MON dynstat_vvel_min             =  -1.7914605991889E-02
(PID.TID 0000.0001) %MON dynstat_vvel_mean            =   1.5275541966699E-05
(PID.TID 0000.0001) %MON dynstat_vvel_sd              =   8.1489756460575E-04
(PID.TID 0000.0001) %MON dynstat_vvel_del2            =   1.6864021424743E-06
(PID.TID 0000.0001) %MON dynstat_wvel_max             =   1.9195719238204E-03
(PID.TID 0000.0001) %MON dynstat_wvel_min             =  -1.8566965098378E-03
(PID.TID 0000.0001) %MON dynstat_wvel_mean            =   7.4601487043077E-09
(PID.TID 0000.0001) %MON dynstat_wvel_sd              =   3.0596013026489E-05
(PID.TID 0000.0001) %MON dynstat_wvel_del2            =   1.2383456820719E-07
(PID.TID 0000.0001) %MON dynstat_theta_max            =   1.2000000000000E+00
(PID.TID 0000.0001) %MON dynstat_theta_min            =  -1.0000000000000E+00
(PID.TID 0000.0001) %MON dynstat_theta_mean           =   5.6834153030601E-01
(PID.TID 0000.0001) %MON dynstat_theta_sd             =   8.6817388897646E-01
(PID.TID 0000.0001) %MON dynstat_theta_del2           =   5.3537342459926E-06
(PID.TID 0000.0001) %MON dynstat_salt_max             =   3.4700000000000E+01
(PID.TID 0000.0001) %MON dynstat_salt_min             =   3.4000000000000E+01
(PID.TID 0000.0001) %MON dynstat_salt_mean            =   3.4498950681985E+01
(PID.TID 0000.0001) %MON dynstat_salt_sd              =   2.7621027042748E-01
(PID.TID 0000.0001) %MON dynstat_salt_del2            =   2.1209316780832E-06
(PID.TID 0000.0001) %MON advcfl_uvel_max              =   5.2914645037682E-03
(PID.TID 0000.0001) %MON advcfl_vvel_max              =   3.5138995103342E-03
(PID.TID 0000.0001) %MON advcfl_wvel_max              =   9.5978596191019E-03
(PID.TID 0000.0001) %MON advcfl_W_hf_max              =   9.5978596191019E-03
(PID.TID 0000.0001) %MON pe_b_mean                    =  -8.2966147050443E-01
(PID.TID 0000.0001) %MON ke_max                       =   1.1536597105975E-03
(PID.TID 0000.0001) %MON ke_mean                      =   1.4735385121417E-06
(PID.TID 0000.0001) %MON ke_vol                       =   4.2724664111233E+12
(PID.TID 0000.0001) // =======================================================
(PID.TID 0000.0001) // End MONITOR dynamic field statistics
(PID.TID 0000.0001) // =======================================================
(PID.TID 0000.0001) // =======================================================
(PID.TID 0000.0001) // Begin OBCS MONITOR field statistics
(PID.TID 0000.0001) // =======================================================
(PID.TID 0000.0001) %MON obc_N_vVel_max               =   1.4958793310479E-05
(PID.TID 0000.0001) %MON obc_N_vVel_min               =   1.4958793310479E-05
(PID.TID 0000.0001) %MON obc_N_vVel_mean              =   1.4958793310479E-05
(PID.TID 0000.0001) %MON obc_N_vVel_sd                =   2.3131849444980E-12
(PID.TID 0000.0001) %MON obc_N_vVel_Int               =   9.8728035849161E+02
(PID.TID 0000.0001) // =======================================================
(PID.TID 0000.0001) // End OBCS MONITOR field statistics
(PID.TID 0000.0001) // =======================================================
 cg2d: Sum(rhs),rhsMax =   4.50775473857208E+00  2.99960527659702E+02
(PID.TID 0000.0001)      cg2d_init_res =   1.03203942747745E-05
(PID.TID 0000.0001)      cg2d_iters(min,last) =      -1      84
(PID.TID 0000.0001)      cg2d_last_res =   9.44610754523488E-12
(PID.TID 0000.0001) // =======================================================
(PID.TID 0000.0001) // Begin MONITOR dynamic field statistics
(PID.TID 0000.0001) // =======================================================
(PID.TID 0000.0001) %MON time_tsnumber                =                  1398
(PID.TID 0000.0001) %MON time_secondsf                =   1.3980000000000E+05
(PID.TID 0000.0001) %MON dynstat_eta_max              =   5.8000328084483E+00
(PID.TID 0000.0001) %MON dynstat_eta_min              =  -1.4191724489997E+01
(PID.TID 0000.0001) %MON dynstat_eta_mean             =  -2.5039786850789E+00
(PID.TID 0000.0001) %MON dynstat_eta_sd               =   4.9500429425018E+00
(PID.TID 0000.0001) %MON dynstat_eta_del2             =   2.0716529325616E-01
(PID.TID 0000.0001) %MON dynstat_uvel_max             =   1.1620854134440E-02
(PID.TID 0000.0001) %MON dynstat_uvel_min             =  -5.3027261154819E-02
(PID.TID 0000.0001) %MON dynstat_uvel_mean            =  -1.0803029722014E-07
(PID.TID 0000.0001) %MON dynstat_uvel_sd              =   1.5294812781276E-03
(PID.TID 0000.0001) %MON dynstat_uvel_del2            =   2.3082313475202E-06
(PID.TID 0000.0001) %MON dynstat_vvel_max             =   3.5188848377666E-02
(PID.TID 0000.0001) %MON dynstat_vvel_min             =  -1.7958216672378E-02
(PID.TID 0000.0001) %MON dynstat_vvel_mean            =   1.5285605364932E-05
(PID.TID 0000.0001) %MON dynstat_vvel_sd              =   8.1647260698758E-04
(PID.TID 0000.0001) %MON dynstat_vvel_del2            =   1.6897285617552E-06
(PID.TID 0000.0001) %MON dynstat_wvel_max             =   1.9227533791728E-03
(PID.TID 0000.0001) %MON dynstat_wvel_min             =  -1.8599216439264E-03
(PID.TID 0000.0001) %MON dynstat_wvel_mean            =   7.4606855509247E-09
(PID.TID 0000.0001) %MON dynstat_wvel_sd              =   3.0650981364183E-05
(PID.TID 0000.0001) %MON dynstat_wvel_del2            =   1.2399363002213E-07
(PID.TID 0000.0001) %MON dynstat_theta_max            =   1.2000000000000E+00
(PID.TID 0000.0001) %MON dynstat_theta_min            =  -1.0000000000000E+00
(PID.TID 0000.0001) %MON dynstat_theta_mean           =   5.6833998957305E-01
(PID.TID 0000.0001) %MON dynstat_theta_sd             =   8.6817308165434E-01
(PID.TID 0000.0001) %MON dynstat_theta_del2           =   5.3639050426116E-06
(PID.TID 0000.0001) %MON dynstat_salt_max             =   3.4700000000000E+01
(PID.TID 0000.0001) %MON dynstat_salt_min             =   3.4000000000000E+01
(PID.TID 0000.0001) %MON dynstat_salt_mean            =   3.4498950065396E+01
(PID.TID 0000.0001) %MON dynstat_salt_sd              =   2.7620996128501E-01
(PID.TID 0000.0001) %MON dynstat_salt_del2            =   2.1249770268800E-06
(PID.TID 0000.0001) %MON advcfl_uvel_max              =   5.3027261154819E-03
(PID.TID 0000.0001) %MON advcfl_vvel_max              =   3.5188848377666E-03
(PID.TID 0000.0001) %MON advcfl_wvel_max              =   9.6137668958640E-03
(PID.TID 0000.0001) %MON advcfl_W_hf_max              =   9.6137668958640E-03
(PID.TID 0000.0001) %MON pe_b_mean                    =  -8.2966188886316E-01
(PID.TID 0000.0001) %MON ke_max                       =   1.1590530795274E-03
(PID.TID 0000.0001) %MON ke_mean                      =   1.4798843468149E-06
(PID.TID 0000.0001) %MON ke_vol                       =   4.2724663888317E+12
(PID.TID 0000.0001) // =======================================================
(PID.TID 0000.0001) // End MONITOR dynamic field statistics
(PID.TID 0000.0001) // =======================================================
(PID.TID 0000.0001) // =======================================================
(PID.TID 0000.0001) // Begin OBCS MONITOR field statistics
(PID.TID 0000.0001) // =======================================================
(PID.TID 0000.0001) %MON obc_N_vVel_max               =   1.4968471878913E-05
(PID.TID 0000.0001) %MON obc_N_vVel_min               =   1.4968471878912E-05
(PID.TID 0000.0001) %MON obc_N_vVel_mean              =   1.4968471878913E-05
(PID.TID 0000.0001) %MON obc_N_vVel_sd                =  -1.4243016172397E-23
(PID.TID 0000.0001) %MON obc_N_vVel_Int               =   9.8791914400823E+02
(PID.TID 0000.0001) // =======================================================
(PID.TID 0000.0001) // End OBCS MONITOR field statistics
(PID.TID 0000.0001) // =======================================================
 cg2d: Sum(rhs),rhsMax =   4.50776029785643E+00  2.99960604242933E+02
(PID.TID 0000.0001)      cg2d_init_res =   1.03319861761379E-05
(PID.TID 0000.0001)      cg2d_iters(min,last) =      -1      84
(PID.TID 0000.0001)      cg2d_last_res =   9.44997575840519E-12
(PID.TID 0000.0001) // =======================================================
(PID.TID 0000.0001) // Begin MONITOR dynamic field statistics
(PID.TID 0000.0001) // =======================================================
(PID.TID 0000.0001) %MON time_tsnumber                =                  1399
(PID.TID 0000.0001) %MON time_secondsf                =   1.3990000000000E+05
(PID.TID 0000.0001) %MON dynstat_eta_max              =   5.8000589113789E+00
(PID.TID 0000.0001) %MON dynstat_eta_min              =  -1.4191754240101E+01
(PID.TID 0000.0001) %MON dynstat_eta_mean             =  -2.5039824124580E+00
(PID.TID 0000.0001) %MON dynstat_eta_sd               =   4.9500447340698E+00
(PID.TID 0000.0001) %MON dynstat_eta_del2             =   2.0716534492136E-01
(PID.TID 0000.0001) %MON dynstat_uvel_max             =   1.1647705954143E-02
(PID.TID 0000.0001) %MON dynstat_uvel_min             =  -5.3139988949467E-02
(PID.TID 0000.0001) %MON dynstat_uvel_mean            =  -1.0790952842622E-07
(PID.TID 0000.0001) %MON dynstat_uvel_sd              =   1.5328671844195E-03
(PID.TID 0000.0001) %MON dynstat_uvel_del2            =   2.3138354390543E-06
(PID.TID 0000.0001) %MON dynstat_vvel_max             =   3.5238679078629E-02
(PID.TID 0000.0001) %MON dynstat_vvel_min             =  -1.8001916728736E-02
(PID.TID 0000.0001) %MON dynstat_vvel_mean            =   1.5293861776799E-05
(PID.TID 0000.0001) %MON dynstat_vvel_sd              =   8.1805240849089E-04
(PID.TID 0000.0001) %MON dynstat_vvel_del2            =   1.6930612747163E-06
(PID.TID 0000.0001) %MON dynstat_wvel_max             =   1.9259344242352E-03
(PID.TID 0000.0001) %MON dynstat_wvel_min             =  -1.8631477589045E-03
(PID.TID 0000.0001) %MON dynstat_wvel_mean            =   7.4577215579841E-09
(PID.TID 0000.0001) %MON dynstat_wvel_sd              =   3.0708725439026E-05
(PID.TID 0000.0001) %MON dynstat_wvel_del2            =   1.2415511383883E-07
(PID.TID 0000.0001) %MON dynstat_theta_max            =   1.2000000000000E+00
(PID.TID 0000.0001) %MON dynstat_theta_min            =  -1.0000000000000E+00
(PID.TID 0000.0001) %MON dynstat_theta_mean           =   5.6833844610302E-01
(PID.TID 0000.0001) %MON dynstat_theta_sd             =   8.6817227310082E-01
(PID.TID 0000.0001) %MON dynstat_theta_del2           =   5.3740913195859E-06
(PID.TID 0000.0001) %MON dynstat_salt_max             =   3.4700000000000E+01
(PID.TID 0000.0001) %MON dynstat_salt_min             =   3.4000000000000E+01
(PID.TID 0000.0001) %MON dynstat_salt_mean            =   3.4498949447713E+01
(PID.TID 0000.0001) %MON dynstat_salt_sd              =   2.7620965168425E-01
(PID.TID 0000.0001) %MON dynstat_salt_del2            =   2.1290267720096E-06
(PID.TID 0000.0001) %MON advcfl_uvel_max              =   5.3139988949467E-03
(PID.TID 0000.0001) %MON advcfl_vvel_max              =   3.5238679078629E-03
(PID.TID 0000.0001) %MON advcfl_wvel_max              =   9.6296721211759E-03
(PID.TID 0000.0001) %MON advcfl_W_hf_max              =   9.6296721211759E-03
(PID.TID 0000.0001) %MON pe_b_mean                    =  -8.2966230126058E-01
(PID.TID 0000.0001) %MON ke_max                       =   1.1644656597266E-03
(PID.TID 0000.0001) %MON ke_mean                      =   1.4862571733832E-06
(PID.TID 0000.0001) %MON ke_vol                       =   4.2724663666106E+12
(PID.TID 0000.0001) // =======================================================
(PID.TID 0000.0001) // End MONITOR dynamic field statistics
(PID.TID 0000.0001) // =======================================================
(PID.TID 0000.0001) // =======================================================
(PID.TID 0000.0001) // Begin OBCS MONITOR field statistics
(PID.TID 0000.0001) // =======================================================
(PID.TID 0000.0001) %MON obc_N_vVel_max               =   1.4976676227253E-05
(PID.TID 0000.0001) %MON obc_N_vVel_min               =   1.4976676227253E-05
(PID.TID 0000.0001) %MON obc_N_vVel_mean              =   1.4976676227253E-05
(PID.TID 0000.0001) %MON obc_N_vVel_sd                =   2.3019830145264E-12
(PID.TID 0000.0001) %MON obc_N_vVel_Int               =   9.8846063099867E+02
(PID.TID 0000.0001) // =======================================================
(PID.TID 0000.0001) // End OBCS MONITOR field statistics
(PID.TID 0000.0001) // =======================================================
 cg2d: Sum(rhs),rhsMax =   4.50776582969743E+00  2.99960680810445E+02
(PID.TID 0000.0001)      cg2d_init_res =   1.03427764173444E-05
(PID.TID 0000.0001)      cg2d_iters(min,last) =      -1      84
(PID.TID 0000.0001)      cg2d_last_res =   9.45293602264946E-12
(PID.TID 0000.0001) // =======================================================
(PID.TID 0000.0001) // Begin MONITOR dynamic field statistics
(PID.TID 0000.0001) // =======================================================
(PID.TID 0000.0001) %MON time_tsnumber                =                  1400
(PID.TID 0000.0001) %MON time_secondsf                =   1.4000000000000E+05
(PID.TID 0000.0001) %MON dynstat_eta_max              =   5.8000851003856E+00
(PID.TID 0000.0001) %MON dynstat_eta_min              =  -1.4191783998760E+01
(PID.TID 0000.0001) %MON dynstat_eta_mean             =  -2.5039861244632E+00
(PID.TID 0000.0001) %MON dynstat_eta_sd               =   4.9500465199210E+00
(PID.TID 0000.0001) %MON dynstat_eta_del2             =   2.0716539666272E-01
(PID.TID 0000.0001) %MON dynstat_uvel_max             =   1.1674600304199E-02
(PID.TID 0000.0001) %MON dynstat_uvel_min             =  -5.3252827842904E-02
(PID.TID 0000.0001) %MON dynstat_uvel_mean            =  -1.0778182685996E-07
(PID.TID 0000.0001) %MON dynstat_uvel_sd              =   1.5362593846007E-03
(PID.TID 0000.0001) %MON dynstat_uvel_del2            =   2.3194531337714E-06
(PID.TID 0000.0001) %MON dynstat_vvel_max             =   3.5288486950576E-02
(PID.TID 0000.0001) %MON dynstat_vvel_min             =  -1.8045706248174E-02
(PID.TID 0000.0001) %MON dynstat_vvel_mean            =   1.5300174935877E-05
(PID.TID 0000.0001) %MON dynstat_vvel_sd              =   8.1963691922311E-04
(PID.TID 0000.0001) %MON dynstat_vvel_del2            =   1.6964007674773E-06
(PID.TID 0000.0001) %MON dynstat_wvel_max             =   1.9291150374697E-03
(PID.TID 0000.0001) %MON dynstat_wvel_min             =  -1.8663748393434E-03
(PID.TID 0000.0001) %MON dynstat_wvel_mean            =   7.4513728847461E-09
(PID.TID 0000.0001) %MON dynstat_wvel_sd              =   3.0769402540667E-05
(PID.TID 0000.0001) %MON dynstat_wvel_del2            =   1.2432157809392E-07
(PID.TID 0000.0001) %MON dynstat_theta_max            =   1.2000000000000E+00
(PID.TID 0000.0001) %MON dynstat_theta_min            =  -1.0000000000000E+00
(PID.TID 0000.0001) %MON dynstat_theta_mean           =   5.6833689989589E-01
(PID.TID 0000.0001) %MON dynstat_theta_sd             =   8.6817146330839E-01
(PID.TID 0000.0001) %MON dynstat_theta_del2           =   5.3842886641522E-06
(PID.TID 0000.0001) %MON dynstat_salt_max             =   3.4700000000000E+01
(PID.TID 0000.0001) %MON dynstat_salt_min             =   3.4000000000000E+01
(PID.TID 0000.0001) %MON dynstat_salt_mean            =   3.4498948828936E+01
(PID.TID 0000.0001) %MON dynstat_salt_sd              =   2.7620934162412E-01
(PID.TID 0000.0001) %MON dynstat_salt_del2            =   2.1330833485528E-06
(PID.TID 0000.0001) %MON advcfl_uvel_max              =   5.3252827842904E-03
(PID.TID 0000.0001) %MON advcfl_vvel_max              =   3.5288486950576E-03
(PID.TID 0000.0001) %MON advcfl_wvel_max              =   9.6455751873484E-03
(PID.TID 0000.0001) %MON advcfl_W_hf_max              =   9.6455751873484E-03
(PID.TID 0000.0001) %MON pe_b_mean                    =  -8.2966270718425E-01
(PID.TID 0000.0001) %MON ke_max                       =   1.1698974796906E-03
(PID.TID 0000.0001) %MON ke_mean                      =   1.4926570402446E-06
(PID.TID 0000.0001) %MON ke_vol                       =   4.2724663444700E+12
(PID.TID 0000.0001) // =======================================================
(PID.TID 0000.0001) // End MONITOR dynamic field statistics
(PID.TID 0000.0001) // =======================================================
(PID.TID 0000.0001) // =======================================================
(PID.TID 0000.0001) // Begin OBCS MONITOR field statistics
(PID.TID 0000.0001) // =======================================================
(PID.TID 0000.0001) %MON obc_N_vVel_max               =   1.4983265551312E-05
(PID.TID 0000.0001) %MON obc_N_vVel_min               =   1.4983265551312E-05
(PID.TID 0000.0001) %MON obc_N_vVel_mean              =   1.4983265551312E-05
(PID.TID 0000.0001) %MON obc_N_vVel_sd                =   2.7237430346556E-12
(PID.TID 0000.0001) %MON obc_N_vVel_Int               =   9.8889552638657E+02
(PID.TID 0000.0001) // =======================================================
(PID.TID 0000.0001) // End OBCS MONITOR field statistics
(PID.TID 0000.0001) // =======================================================
 cg2d: Sum(rhs),rhsMax =   4.50777133094148E+00  2.99960757338573E+02
(PID.TID 0000.0001)      cg2d_init_res =   1.03529765009941E-05
(PID.TID 0000.0001)      cg2d_iters(min,last) =      -1      84
(PID.TID 0000.0001)      cg2d_last_res =   9.45535717994535E-12
(PID.TID 0000.0001) // =======================================================
(PID.TID 0000.0001) // Begin MONITOR dynamic field statistics
(PID.TID 0000.0001) // =======================================================
(PID.TID 0000.0001) %MON time_tsnumber                =                  1401
(PID.TID 0000.0001) %MON time_secondsf                =   1.4010000000000E+05
(PID.TID 0000.0001) %MON dynstat_eta_max              =   5.8001113796093E+00
(PID.TID 0000.0001) %MON dynstat_eta_min              =  -1.4191813764052E+01
(PID.TID 0000.0001) %MON dynstat_eta_mean             =  -2.5039898191450E+00
(PID.TID 0000.0001) %MON dynstat_eta_sd               =   4.9500482993597E+00
(PID.TID 0000.0001) %MON dynstat_eta_del2             =   2.0716544848111E-01
(PID.TID 0000.0001) %MON dynstat_uvel_max             =   1.1701537253526E-02
(PID.TID 0000.0001) %MON dynstat_uvel_min             =  -5.3365777253388E-02
(PID.TID 0000.0001) %MON dynstat_uvel_mean            =  -1.0764916467835E-07
(PID.TID 0000.0001) %MON dynstat_uvel_sd              =   1.5396578832496E-03
(PID.TID 0000.0001) %MON dynstat_uvel_del2            =   2.3250844633850E-06
(PID.TID 0000.0001) %MON dynstat_vvel_max             =   3.5338271746440E-02
(PID.TID 0000.0001) %MON dynstat_vvel_min             =  -1.8089585307651E-02
(PID.TID 0000.0001) %MON dynstat_vvel_mean            =   1.5304448358220E-05
(PID.TID 0000.0001) %MON dynstat_vvel_sd              =   8.2122605835055E-04
(PID.TID 0000.0001) %MON dynstat_vvel_del2            =   1.6997474708974E-06
(PID.TID 0000.0001) %MON dynstat_wvel_max             =   1.9322951972878E-03
(PID.TID 0000.0001) %MON dynstat_wvel_min             =  -1.8696028699219E-03
(PID.TID 0000.0001) %MON dynstat_wvel_mean            =   7.4418198478139E-09
(PID.TID 0000.0001) %MON dynstat_wvel_sd              =   3.0833100657037E-05
(PID.TID 0000.0001) %MON dynstat_wvel_del2            =   1.2449545068668E-07
(PID.TID 0000.0001) %MON dynstat_theta_max            =   1.2000000000000E+00
(PID.TID 0000.0001) %MON dynstat_theta_min            =  -1.0000000000000E+00
(PID.TID 0000.0001) %MON dynstat_theta_mean           =   5.6833535095159E-01
(PID.TID 0000.0001) %MON dynstat_theta_sd             =   8.6817065227080E-01
(PID.TID 0000.0001) %MON dynstat_theta_del2           =   5.3944964643828E-06
(PID.TID 0000.0001) %MON dynstat_salt_max             =   3.4700000000000E+01
(PID.TID 0000.0001) %MON dynstat_salt_min             =   3.4000000000000E+01
(PID.TID 0000.0001) %MON dynstat_salt_mean            =   3.4498948209065E+01
(PID.TID 0000.0001) %MON dynstat_salt_sd              =   2.7620903110196E-01
(PID.TID 0000.0001) %MON dynstat_salt_del2            =   2.1371449743710E-06
(PID.TID 0000.0001) %MON advcfl_uvel_max              =   5.3365777253388E-03
(PID.TID 0000.0001) %MON advcfl_vvel_max              =   3.5338271746440E-03
(PID.TID 0000.0001) %MON advcfl_wvel_max              =   9.6614759864389E-03
(PID.TID 0000.0001) %MON advcfl_W_hf_max              =   9.6614759864389E-03
(PID.TID 0000.0001) %MON pe_b_mean                    =  -8.2966310610019E-01
(PID.TID 0000.0001) %MON ke_max                       =   1.1753485679310E-03
(PID.TID 0000.0001) %MON ke_mean                      =   1.4990839715962E-06
(PID.TID 0000.0001) %MON ke_vol                       =   4.2724663224207E+12
(PID.TID 0000.0001) // =======================================================
(PID.TID 0000.0001) // End MONITOR dynamic field statistics
(PID.TID 0000.0001) // =======================================================
(PID.TID 0000.0001) // =======================================================
(PID.TID 0000.0001) // Begin OBCS MONITOR field statistics
(PID.TID 0000.0001) // =======================================================
(PID.TID 0000.0001) %MON obc_N_vVel_max               =   1.4988132380355E-05
(PID.TID 0000.0001) %MON obc_N_vVel_min               =   1.4988132380354E-05
(PID.TID 0000.0001) %MON obc_N_vVel_mean              =   1.4988132380355E-05
(PID.TID 0000.0001) %MON obc_N_vVel_sd                =  -2.4272581099603E-23
(PID.TID 0000.0001) %MON obc_N_vVel_Int               =   9.8921673710342E+02
(PID.TID 0000.0001) // =======================================================
(PID.TID 0000.0001) // End OBCS MONITOR field statistics
(PID.TID 0000.0001) // =======================================================
 cg2d: Sum(rhs),rhsMax =   4.50777679826357E+00  2.99960833805333E+02
(PID.TID 0000.0001)      cg2d_init_res =   1.03625610390766E-05
(PID.TID 0000.0001)      cg2d_iters(min,last) =      -1      84
(PID.TID 0000.0001)      cg2d_last_res =   9.45731908709919E-12
(PID.TID 0000.0001) // =======================================================
(PID.TID 0000.0001) // Begin MONITOR dynamic field statistics
(PID.TID 0000.0001) // =======================================================
(PID.TID 0000.0001) %MON time_tsnumber                =                  1402
(PID.TID 0000.0001) %MON time_secondsf                =   1.4020000000000E+05
(PID.TID 0000.0001) %MON dynstat_eta_max              =   5.8001377532691E+00
(PID.TID 0000.0001) %MON dynstat_eta_min              =  -1.4191843534025E+01
(PID.TID 0000.0001) %MON dynstat_eta_mean             =  -2.5039934944731E+00
(PID.TID 0000.0001) %MON dynstat_eta_sd               =   4.9500500716751E+00
(PID.TID 0000.0001) %MON dynstat_eta_del2             =   2.0716550037552E-01
(PID.TID 0000.0001) %MON dynstat_uvel_max             =   1.1728516867974E-02
(PID.TID 0000.0001) %MON dynstat_uvel_min             =  -5.3478836596306E-02
(PID.TID 0000.0001) %MON dynstat_uvel_mean            =  -1.0751360295103E-07
(PID.TID 0000.0001) %MON dynstat_uvel_sd              =   1.5430626853992E-03
(PID.TID 0000.0001) %MON dynstat_uvel_del2            =   2.3307294592295E-06
(PID.TID 0000.0001) %MON dynstat_vvel_max             =   3.5388033228085E-02
(PID.TID 0000.0001) %MON dynstat_vvel_min             =  -1.8133553973732E-02
(PID.TID 0000.0001) %MON dynstat_vvel_mean            =   1.5306627082197E-05
(PID.TID 0000.0001) %MON dynstat_vvel_sd              =   8.2281971435581E-04
(PID.TID 0000.0001) %MON dynstat_vvel_del2            =   1.7031017255862E-06
(PID.TID 0000.0001) %MON dynstat_wvel_max             =   1.9354748820810E-03
(PID.TID 0000.0001) %MON dynstat_wvel_min             =  -1.8728318355558E-03
(PID.TID 0000.0001) %MON dynstat_wvel_mean            =   7.4293084249444E-09
(PID.TID 0000.0001) %MON dynstat_wvel_sd              =   3.0899817967176E-05
(PID.TID 0000.0001) %MON dynstat_wvel_del2            =   1.2467883898788E-07
(PID.TID 0000.0001) %MON dynstat_theta_max            =   1.2000000000000E+00
(PID.TID 0000.0001) %MON dynstat_theta_min            =  -1.0000000000000E+00
(PID.TID 0000.0001) %MON dynstat_theta_mean           =   5.6833379926987E-01
(PID.TID 0000.0001) %MON dynstat_theta_sd             =   8.6816983998251E-01
(PID.TID 0000.0001) %MON dynstat_theta_del2           =   5.4047148081621E-06
(PID.TID 0000.0001) %MON dynstat_salt_max             =   3.4700000000000E+01
(PID.TID 0000.0001) %MON dynstat_salt_min             =   3.4000000000000E+01
(PID.TID 0000.0001) %MON dynstat_salt_mean            =   3.4498947588099E+01
(PID.TID 0000.0001) %MON dynstat_salt_sd              =   2.7620872011607E-01
(PID.TID 0000.0001) %MON dynstat_salt_del2            =   2.1412116469321E-06
(PID.TID 0000.0001) %MON advcfl_uvel_max              =   5.3478836596306E-03
(PID.TID 0000.0001) %MON advcfl_vvel_max              =   3.5388033228085E-03
(PID.TID 0000.0001) %MON advcfl_wvel_max              =   9.6773744104049E-03
(PID.TID 0000.0001) %MON advcfl_W_hf_max              =   9.6773744104049E-03
(PID.TID 0000.0001) %MON pe_b_mean                    =  -8.2966349746322E-01
(PID.TID 0000.0001) %MON ke_max                       =   1.1808189530066E-03
(PID.TID 0000.0001) %MON ke_mean                      =   1.5055379674483E-06
(PID.TID 0000.0001) %MON ke_vol                       =   4.2724663004743E+12
(PID.TID 0000.0001) // =======================================================
(PID.TID 0000.0001) // End MONITOR dynamic field statistics
(PID.TID 0000.0001) // =======================================================
(PID.TID 0000.0001) // =======================================================
(PID.TID 0000.0001) // Begin OBCS MONITOR field statistics
(PID.TID 0000.0001) // =======================================================
(PID.TID 0000.0001) %MON obc_N_vVel_max               =   1.4991204467834E-05
(PID.TID 0000.0001) %MON obc_N_vVel_min               =   1.4991204467833E-05
(PID.TID 0000.0001) %MON obc_N_vVel_mean              =   1.4991204467833E-05
(PID.TID 0000.0001) %MON obc_N_vVel_sd                =   1.2659630471785E-12
(PID.TID 0000.0001) %MON obc_N_vVel_Int               =   9.8941949487700E+02
(PID.TID 0000.0001) // =======================================================
(PID.TID 0000.0001) // End OBCS MONITOR field statistics
(PID.TID 0000.0001) // =======================================================
 cg2d: Sum(rhs),rhsMax =   4.50778222822734E+00  2.99960910191017E+02
(PID.TID 0000.0001)      cg2d_init_res =   1.03716513456672E-05
(PID.TID 0000.0001)      cg2d_iters(min,last) =      -1      84
(PID.TID 0000.0001)      cg2d_last_res =   9.45893334178519E-12
(PID.TID 0000.0001) // =======================================================
(PID.TID 0000.0001) // Begin MONITOR dynamic field statistics
(PID.TID 0000.0001) // =======================================================
(PID.TID 0000.0001) %MON time_tsnumber                =                  1403
(PID.TID 0000.0001) %MON time_secondsf                =   1.4030000000000E+05
(PID.TID 0000.0001) %MON dynstat_eta_max              =   5.8001642255870E+00
(PID.TID 0000.0001) %MON dynstat_eta_min              =  -1.4191873306731E+01
(PID.TID 0000.0001) %MON dynstat_eta_mean             =  -2.5039971483740E+00
(PID.TID 0000.0001) %MON dynstat_eta_sd               =   4.9500518361762E+00
(PID.TID 0000.0001) %MON dynstat_eta_del2             =   2.0716555234517E-01
(PID.TID 0000.0001) %MON dynstat_uvel_max             =   1.1755539208586E-02
(PID.TID 0000.0001) %MON dynstat_uvel_min             =  -5.3592005285044E-02
(PID.TID 0000.0001) %MON dynstat_uvel_mean            =  -1.0737724285069E-07
(PID.TID 0000.0001) %MON dynstat_uvel_sd              =   1.5464737964210E-03
(PID.TID 0000.0001) %MON dynstat_uvel_del2            =   2.3363881526445E-06
(PID.TID 0000.0001) %MON dynstat_vvel_max             =   3.5437771166573E-02
(PID.TID 0000.0001) %MON dynstat_vvel_min             =  -1.8177612241436E-02
(PID.TID 0000.0001) %MON dynstat_vvel_mean            =   1.5306698413850E-05
(PID.TID 0000.0001) %MON dynstat_vvel_sd              =   8.2441774534194E-04
(PID.TID 0000.0001) %MON dynstat_vvel_del2            =   1.7064637508536E-06
(PID.TID 0000.0001) %MON dynstat_wvel_max             =   1.9386540702018E-03
(PID.TID 0000.0001) %MON dynstat_wvel_min             =  -1.8760617296957E-03
(PID.TID 0000.0001) %MON dynstat_wvel_mean            =   7.4141408129031E-09
(PID.TID 0000.0001) %MON dynstat_wvel_sd              =   3.0969446650388E-05
(PID.TID 0000.0001) %MON dynstat_wvel_del2            =   1.2487335410937E-07
(PID.TID 0000.0001) %MON dynstat_theta_max            =   1.2000000000000E+00
(PID.TID 0000.0001) %MON dynstat_theta_min            =  -1.0000000000000E+00
(PID.TID 0000.0001) %MON dynstat_theta_mean           =   5.6833224485012E-01
(PID.TID 0000.0001) %MON dynstat_theta_sd             =   8.6816902643793E-01
(PID.TID 0000.0001) %MON dynstat_theta_del2           =   5.4149436929297E-06
(PID.TID 0000.0001) %MON dynstat_salt_max             =   3.4700000000000E+01
(PID.TID 0000.0001) %MON dynstat_salt_min             =   3.4000000000000E+01
(PID.TID 0000.0001) %MON dynstat_salt_mean            =   3.4498946966038E+01
(PID.TID 0000.0001) %MON dynstat_salt_sd              =   2.7620840866458E-01
(PID.TID 0000.0001) %MON dynstat_salt_del2            =   2.1452833529573E-06
(PID.TID 0000.0001) %MON advcfl_uvel_max              =   5.3592005285044E-03
(PID.TID 0000.0001) %MON advcfl_vvel_max              =   3.5437771166573E-03
(PID.TID 0000.0001) %MON advcfl_wvel_max              =   9.6932703510090E-03
(PID.TID 0000.0001) %MON advcfl_W_hf_max              =   9.6932703510090E-03
(PID.TID 0000.0001) %MON pe_b_mean                    =  -8.2966388072606E-01
(PID.TID 0000.0001) %MON ke_max                       =   1.1863086635689E-03
(PID.TID 0000.0001) %MON ke_mean                      =   1.5120190034714E-06
(PID.TID 0000.0001) %MON ke_vol                       =   4.2724662786428E+12
(PID.TID 0000.0001) // =======================================================
(PID.TID 0000.0001) // End MONITOR dynamic field statistics
(PID.TID 0000.0001) // =======================================================
(PID.TID 0000.0001) // =======================================================
(PID.TID 0000.0001) // Begin OBCS MONITOR field statistics
(PID.TID 0000.0001) // =======================================================
(PID.TID 0000.0001) %MON obc_N_vVel_max               =   1.4992445953670E-05
(PID.TID 0000.0001) %MON obc_N_vVel_min               =   1.4992445953670E-05
(PID.TID 0000.0001) %MON obc_N_vVel_mean              =   1.4992445953670E-05
(PID.TID 0000.0001) %MON obc_N_vVel_sd                =   3.6237400878484E-12
(PID.TID 0000.0001) %MON obc_N_vVel_Int               =   9.8950143294220E+02
(PID.TID 0000.0001) // =======================================================
(PID.TID 0000.0001) // End OBCS MONITOR field statistics
(PID.TID 0000.0001) // =======================================================
 cg2d: Sum(rhs),rhsMax =   4.50778761735973E+00  2.99960986478569E+02
(PID.TID 0000.0001)      cg2d_init_res =   1.03803682288307E-05
(PID.TID 0000.0001)      cg2d_iters(min,last) =      -1      84
(PID.TID 0000.0001)      cg2d_last_res =   9.46037203663352E-12
(PID.TID 0000.0001) // =======================================================
(PID.TID 0000.0001) // Begin MONITOR dynamic field statistics
(PID.TID 0000.0001) // =======================================================
(PID.TID 0000.0001) %MON time_tsnumber                =                  1404
(PID.TID 0000.0001) %MON time_secondsf                =   1.4040000000000E+05
(PID.TID 0000.0001) %MON dynstat_eta_max              =   5.8001908006992E+00
(PID.TID 0000.0001) %MON dynstat_eta_min              =  -1.4191903080274E+01
(PID.TID 0000.0001) %MON dynstat_eta_mean             =  -2.5040007787761E+00
(PID.TID 0000.0001) %MON dynstat_eta_sd               =   4.9500535922111E+00
(PID.TID 0000.0001) %MON dynstat_eta_del2             =   2.0716560438968E-01
(PID.TID 0000.0001) %MON dynstat_uvel_max             =   1.1782604334075E-02
(PID.TID 0000.0001) %MON dynstat_uvel_min             =  -5.3705282730171E-02
(PID.TID 0000.0001) %MON dynstat_uvel_mean            =  -1.0724218823024E-07
(PID.TID 0000.0001) %MON dynstat_uvel_sd              =   1.5498912220050E-03
(PID.TID 0000.0001) %MON dynstat_uvel_del2            =   2.3420605753860E-06
(PID.TID 0000.0001) %MON dynstat_vvel_max             =   3.5487485342006E-02
(PID.TID 0000.0001) %MON dynstat_vvel_min             =  -1.8221760155953E-02
(PID.TID 0000.0001) %MON dynstat_vvel_mean            =   1.5304691848850E-05
(PID.TID 0000.0001) %MON dynstat_vvel_sd              =   8.2601998061755E-04
(PID.TID 0000.0001) %MON dynstat_vvel_del2            =   1.7098336236763E-06
(PID.TID 0000.0001) %MON dynstat_wvel_max             =   1.9418327399630E-03
(PID.TID 0000.0001) %MON dynstat_wvel_min             =  -1.8792925374164E-03
(PID.TID 0000.0001) %MON dynstat_wvel_mean            =   7.3966699869549E-09
(PID.TID 0000.0001) %MON dynstat_wvel_sd              =   3.1041763190262E-05
(PID.TID 0000.0001) %MON dynstat_wvel_del2            =   1.2507997553696E-07
(PID.TID 0000.0001) %MON dynstat_theta_max            =   1.2000000000000E+00
(PID.TID 0000.0001) %MON dynstat_theta_min            =  -1.0000000000000E+00
(PID.TID 0000.0001) %MON dynstat_theta_mean           =   5.6833068769172E-01
(PID.TID 0000.0001) %MON dynstat_theta_sd             =   8.6816821163137E-01
(PID.TID 0000.0001) %MON dynstat_theta_del2           =   5.4251832494240E-06
(PID.TID 0000.0001) %MON dynstat_salt_max             =   3.4700000000000E+01
(PID.TID 0000.0001) %MON dynstat_salt_min             =   3.4000000000000E+01
(PID.TID 0000.0001) %MON dynstat_salt_mean            =   3.4498946342880E+01
(PID.TID 0000.0001) %MON dynstat_salt_sd              =   2.7620809674572E-01
(PID.TID 0000.0001) %MON dynstat_salt_del2            =   2.1493601477539E-06
(PID.TID 0000.0001) %MON advcfl_uvel_max              =   5.3705282730171E-03
(PID.TID 0000.0001) %MON advcfl_vvel_max              =   3.5487485342006E-03
(PID.TID 0000.0001) %MON advcfl_wvel_max              =   9.7091636998150E-03
(PID.TID 0000.0001) %MON advcfl_W_hf_max              =   9.7091636998150E-03
(PID.TID 0000.0001) %MON pe_b_mean                    =  -8.2966425535278E-01
(PID.TID 0000.0001) %MON ke_max                       =   1.1918177283332E-03
(PID.TID 0000.0001) %MON ke_mean                      =   1.5185270320331E-06
(PID.TID 0000.0001) %MON ke_vol                       =   4.2724662569387E+12
(PID.TID 0000.0001) // =======================================================
(PID.TID 0000.0001) // End MONITOR dynamic field statistics
(PID.TID 0000.0001) // =======================================================
(PID.TID 0000.0001) // =======================================================
(PID.TID 0000.0001) // Begin OBCS MONITOR field statistics
(PID.TID 0000.0001) // =======================================================
(PID.TID 0000.0001) %MON obc_N_vVel_max               =   1.4991857831979E-05
(PID.TID 0000.0001) %MON obc_N_vVel_min               =   1.4991857831979E-05
(PID.TID 0000.0001) %MON obc_N_vVel_mean              =   1.4991857831979E-05
(PID.TID 0000.0001) %MON obc_N_vVel_sd                =   3.4257298405736E-12
(PID.TID 0000.0001) %MON obc_N_vVel_Int               =   9.8946261691059E+02
(PID.TID 0000.0001) // =======================================================
(PID.TID 0000.0001) // End OBCS MONITOR field statistics
(PID.TID 0000.0001) // =======================================================
 cg2d: Sum(rhs),rhsMax =   4.50779296222224E+00  2.99961062653901E+02
(PID.TID 0000.0001)      cg2d_init_res =   1.03888208437334E-05
(PID.TID 0000.0001)      cg2d_iters(min,last) =      -1      84
(PID.TID 0000.0001)      cg2d_last_res =   9.46180905448310E-12
(PID.TID 0000.0001) // =======================================================
(PID.TID 0000.0001) // Begin MONITOR dynamic field statistics
(PID.TID 0000.0001) // =======================================================
(PID.TID 0000.0001) %MON time_tsnumber                =                  1405
(PID.TID 0000.0001) %MON time_secondsf                =   1.4050000000000E+05
(PID.TID 0000.0001) %MON dynstat_eta_max              =   5.8002174825786E+00
(PID.TID 0000.0001) %MON dynstat_eta_min              =  -1.4191932852855E+01
(PID.TID 0000.0001) %MON dynstat_eta_mean             =  -2.5040043836518E+00
(PID.TID 0000.0001) %MON dynstat_eta_sd               =   4.9500553391777E+00
(PID.TID 0000.0001) %MON dynstat_eta_del2             =   2.0716565650885E-01
(PID.TID 0000.0001) %MON dynstat_uvel_max             =   1.1809712301108E-02
(PID.TID 0000.0001) %MON dynstat_uvel_min             =  -5.3818668339165E-02
(PID.TID 0000.0001) %MON dynstat_uvel_mean            =  -1.0711049890319E-07
(PID.TID 0000.0001) %MON dynstat_uvel_sd              =   1.5533149680790E-03
(PID.TID 0000.0001) %MON dynstat_uvel_del2            =   2.3477467593686E-06
(PID.TID 0000.0001) %MON dynstat_vvel_max             =   3.5537175543452E-02
(PID.TID 0000.0001) %MON dynstat_vvel_min             =  -1.8265997753321E-02
(PID.TID 0000.0001) %MON dynstat_vvel_mean            =   1.5300678153503E-05
(PID.TID 0000.0001) %MON dynstat_vvel_sd              =   8.2762622350984E-04
(PID.TID 0000.0001) %MON dynstat_vvel_del2            =   1.7132112677527E-06
(PID.TID 0000.0001) %MON dynstat_wvel_max             =   1.9450108696626E-03
(PID.TID 0000.0001) %MON dynstat_wvel_min             =  -1.8825242441982E-03
(PID.TID 0000.0001) %MON dynstat_wvel_mean            =   7.3772926848654E-09
(PID.TID 0000.0001) %MON dynstat_wvel_sd              =   3.1116426100949E-05
(PID.TID 0000.0001) %MON dynstat_wvel_del2            =   1.2529896323133E-07
(PID.TID 0000.0001) %MON dynstat_theta_max            =   1.2000000000000E+00
(PID.TID 0000.0001) %MON dynstat_theta_min            =  -1.0000000000000E+00
(PID.TID 0000.0001) %MON dynstat_theta_mean           =   5.6832912779434E-01
(PID.TID 0000.0001) %MON dynstat_theta_sd             =   8.6816739555750E-01
(PID.TID 0000.0001) %MON dynstat_theta_del2           =   5.4354340429015E-06
(PID.TID 0000.0001) %MON dynstat_salt_max             =   3.4700000000000E+01
(PID.TID 0000.0001) %MON dynstat_salt_min             =   3.4000000000000E+01
(PID.TID 0000.0001) %MON dynstat_salt_mean            =   3.4498945718627E+01
(PID.TID 0000.0001) %MON dynstat_salt_sd              =   2.7620778435706E-01
(PID.TID 0000.0001) %MON dynstat_salt_del2            =   2.1534421935623E-06
(PID.TID 0000.0001) %MON advcfl_uvel_max              =   5.3818668339165E-03
(PID.TID 0000.0001) %MON advcfl_vvel_max              =   3.5537175543452E-03
(PID.TID 0000.0001) %MON advcfl_wvel_max              =   9.7250543483130E-03
(PID.TID 0000.0001) %MON advcfl_W_hf_max              =   9.7250543483130E-03
(PID.TID 0000.0001) %MON pe_b_mean                    =  -8.2966462082925E-01
(PID.TID 0000.0001) %MON ke_max                       =   1.1973461760250E-03
(PID.TID 0000.0001) %MON ke_mean                      =   1.5250619841560E-06
(PID.TID 0000.0001) %MON ke_vol                       =   4.2724662353741E+12
(PID.TID 0000.0001) // =======================================================
(PID.TID 0000.0001) // End MONITOR dynamic field statistics
(PID.TID 0000.0001) // =======================================================
(PID.TID 0000.0001) // =======================================================
(PID.TID 0000.0001) // Begin OBCS MONITOR field statistics
(PID.TID 0000.0001) // =======================================================
(PID.TID 0000.0001) %MON obc_N_vVel_max               =   1.4989477575327E-05
(PID.TID 0000.0001) %MON obc_N_vVel_min               =   1.4989477575327E-05
(PID.TID 0000.0001) %MON obc_N_vVel_mean              =   1.4989477575327E-05
(PID.TID 0000.0001) %MON obc_N_vVel_sd                =  -4.8596860987490E-24
(PID.TID 0000.0001) %MON obc_N_vVel_Int               =   9.8930551997157E+02
(PID.TID 0000.0001) // =======================================================
(PID.TID 0000.0001) // End OBCS MONITOR field statistics
(PID.TID 0000.0001) // =======================================================
 cg2d: Sum(rhs),rhsMax =   4.50779825947542E+00  2.99961138706143E+02
(PID.TID 0000.0001)      cg2d_init_res =   1.03971211586962E-05
(PID.TID 0000.0001)      cg2d_iters(min,last) =      -1      84
(PID.TID 0000.0001)      cg2d_last_res =   9.46342248367050E-12
(PID.TID 0000.0001) // =======================================================
(PID.TID 0000.0001) // Begin MONITOR dynamic field statistics
(PID.TID 0000.0001) // =======================================================
(PID.TID 0000.0001) %MON time_tsnumber                =                  1406
(PID.TID 0000.0001) %MON time_secondsf                =   1.4060000000000E+05
(PID.TID 0000.0001) %MON dynstat_eta_max              =   5.8002442749683E+00
(PID.TID 0000.0001) %MON dynstat_eta_min              =  -1.4191962622790E+01
(PID.TID 0000.0001) %MON dynstat_eta_mean             =  -2.5040079610552E+00
(PID.TID 0000.0001) %MON dynstat_eta_sd               =   4.9500570765338E+00
(PID.TID 0000.0001) %MON dynstat_eta_del2             =   2.0716570870256E-01
(PID.TID 0000.0001) %MON dynstat_uvel_max             =   1.1836863162925E-02
(PID.TID 0000.0001) %MON dynstat_uvel_min             =  -5.3932161515584E-02
(PID.TID 0000.0001) %MON dynstat_uvel_mean            =  -1.0698417794477E-07
(PID.TID 0000.0001) %MON dynstat_uvel_sd              =   1.5567450418882E-03
(PID.TID 0000.0001) %MON dynstat_uvel_del2            =   2.3534467364734E-06
(PID.TID 0000.0001) %MON dynstat_vvel_max             =   3.5586841554468E-02
(PID.TID 0000.0001) %MON dynstat_vvel_min             =  -1.8310325059383E-02
(PID.TID 0000.0001) %MON dynstat_vvel_mean            =   1.5294767639338E-05
(PID.TID 0000.0001) %MON dynstat_vvel_sd              =   8.2923625339885E-04
(PID.TID 0000.0001) %MON dynstat_vvel_del2            =   1.7165964566228E-06
(PID.TID 0000.0001) %MON dynstat_wvel_max             =   1.9481884373593E-03
(PID.TID 0000.0001) %MON dynstat_wvel_min             =  -1.8857568355765E-03
(PID.TID 0000.0001) %MON dynstat_wvel_mean            =   7.3564400517283E-09
(PID.TID 0000.0001) %MON dynstat_wvel_sd              =   3.1192981937266E-05
(PID.TID 0000.0001) %MON dynstat_wvel_del2            =   1.2552982438912E-07
(PID.TID 0000.0001) %MON dynstat_theta_max            =   1.2000000000000E+00
(PID.TID 0000.0001) %MON dynstat_theta_min            =  -1.0000000000000E+00
(PID.TID 0000.0001) %MON dynstat_theta_mean           =   5.6832756515769E-01
(PID.TID 0000.0001) %MON dynstat_theta_sd             =   8.6816657821325E-01
(PID.TID 0000.0001) %MON dynstat_theta_del2           =   5.4457028641843E-06
(PID.TID 0000.0001) %MON dynstat_salt_max             =   3.4700000000000E+01
(PID.TID 0000.0001) %MON dynstat_salt_min             =   3.4000000000000E+01
(PID.TID 0000.0001) %MON dynstat_salt_mean            =   3.4498945093276E+01
(PID.TID 0000.0001) %MON dynstat_salt_sd              =   2.7620747149877E-01
(PID.TID 0000.0001) %MON dynstat_salt_del2            =   2.1575310637068E-06
(PID.TID 0000.0001) %MON advcfl_uvel_max              =   5.3932161515584E-03
(PID.TID 0000.0001) %MON advcfl_vvel_max              =   3.5586841554468E-03
(PID.TID 0000.0001) %MON advcfl_wvel_max              =   9.7409421867964E-03
(PID.TID 0000.0001) %MON advcfl_W_hf_max              =   9.7409421867964E-03
(PID.TID 0000.0001) %MON pe_b_mean                    =  -8.2966497667229E-01
(PID.TID 0000.0001) %MON ke_max                       =   1.2028940353672E-03
(PID.TID 0000.0001) %MON ke_mean                      =   1.5316237726118E-06
(PID.TID 0000.0001) %MON ke_vol                       =   4.2724662139611E+12
(PID.TID 0000.0001) // =======================================================
(PID.TID 0000.0001) // End MONITOR dynamic field statistics
(PID.TID 0000.0001) // =======================================================
(PID.TID 0000.0001) // =======================================================
(PID.TID 0000.0001) // Begin OBCS MONITOR field statistics
(PID.TID 0000.0001) // =======================================================
(PID.TID 0000.0001) %MON obc_N_vVel_max               =   1.4985378159653E-05
(PID.TID 0000.0001) %MON obc_N_vVel_min               =   1.4985378159652E-05
(PID.TID 0000.0001) %MON obc_N_vVel_mean              =   1.4985378159653E-05
(PID.TID 0000.0001) %MON obc_N_vVel_sd                =  -8.3493543079571E-24
(PID.TID 0000.0001) %MON obc_N_vVel_Int               =   9.8903495853708E+02
(PID.TID 0000.0001) // =======================================================
(PID.TID 0000.0001) // End OBCS MONITOR field statistics
(PID.TID 0000.0001) // =======================================================
 cg2d: Sum(rhs),rhsMax =   4.50780350594170E+00  2.99961214627859E+02
(PID.TID 0000.0001)      cg2d_init_res =   1.04053874554750E-05
(PID.TID 0000.0001)      cg2d_iters(min,last) =      -1      84
(PID.TID 0000.0001)      cg2d_last_res =   9.46537010619714E-12
(PID.TID 0000.0001) // =======================================================
(PID.TID 0000.0001) // Begin MONITOR dynamic field statistics
(PID.TID 0000.0001) // =======================================================
(PID.TID 0000.0001) %MON time_tsnumber                =                  1407
(PID.TID 0000.0001) %MON time_secondsf                =   1.4070000000000E+05
(PID.TID 0000.0001) %MON dynstat_eta_max              =   5.8002711812930E+00
(PID.TID 0000.0001) %MON dynstat_eta_min              =  -1.4191992388577E+01
(PID.TID 0000.0001) %MON dynstat_eta_mean             =  -2.5040115091592E+00
(PID.TID 0000.0001) %MON dynstat_eta_sd               =   4.9500588038080E+00
(PID.TID 0000.0001) %MON dynstat_eta_del2             =   2.0716576097105E-01
(PID.TID 0000.0001) %MON dynstat_uvel_max             =   1.1864056969678E-02
(PID.TID 0000.0001) %MON dynstat_uvel_min             =  -5.4045761659014E-02
(PID.TID 0000.0001) %MON dynstat_uvel_mean            =  -1.0686505922903E-07
(PID.TID 0000.0001) %MON dynstat_uvel_sd              =   1.5601814497575E-03
(PID.TID 0000.0001) %MON dynstat_uvel_del2            =   2.3591605386544E-06
(PID.TID 0000.0001) %MON dynstat_vvel_max             =   3.5636483188936E-02
(PID.TID 0000.0001) %MON dynstat_vvel_min             =  -1.8354742090496E-02
(PID.TID 0000.0001) %MON dynstat_vvel_mean            =   1.5287107625453E-05
(PID.TID 0000.0001) %MON dynstat_vvel_sd              =   8.3084983471588E-04
(PID.TID 0000.0001) %MON dynstat_vvel_del2            =   1.7199888243061E-06
(PID.TID 0000.0001) %MON dynstat_wvel_max             =   1.9513654211377E-03
(PID.TID 0000.0001) %MON dynstat_wvel_min             =  -1.8889902973074E-03
(PID.TID 0000.0001) %MON dynstat_wvel_mean            =   7.3345697901569E-09
(PID.TID 0000.0001) %MON dynstat_wvel_sd              =   3.1270878296111E-05
(PID.TID 0000.0001) %MON dynstat_wvel_del2            =   1.2577133901651E-07
(PID.TID 0000.0001) %MON dynstat_theta_max            =   1.2000000000000E+00
(PID.TID 0000.0001) %MON dynstat_theta_min            =  -1.0000000000000E+00
(PID.TID 0000.0001) %MON dynstat_theta_mean           =   5.6832599978147E-01
(PID.TID 0000.0001) %MON dynstat_theta_sd             =   8.6816575959347E-01
(PID.TID 0000.0001) %MON dynstat_theta_del2           =   5.4559843653691E-06
(PID.TID 0000.0001) %MON dynstat_salt_max             =   3.4700000000000E+01
(PID.TID 0000.0001) %MON dynstat_salt_min             =   3.4000000000000E+01
(PID.TID 0000.0001) %MON dynstat_salt_mean            =   3.4498944466828E+01
(PID.TID 0000.0001) %MON dynstat_salt_sd              =   2.7620715816933E-01
(PID.TID 0000.0001) %MON dynstat_salt_del2            =   2.1616265867310E-06
(PID.TID 0000.0001) %MON advcfl_uvel_max              =   5.4045761659014E-03
(PID.TID 0000.0001) %MON advcfl_vvel_max              =   3.5636483188936E-03
(PID.TID 0000.0001) %MON advcfl_wvel_max              =   9.7568271056884E-03
(PID.TID 0000.0001) %MON advcfl_W_hf_max              =   9.7568271056884E-03
(PID.TID 0000.0001) %MON pe_b_mean                    =  -8.2966532243853E-01
(PID.TID 0000.0001) %MON ke_max                       =   1.2084613350765E-03
(PID.TID 0000.0001) %MON ke_mean                      =   1.5382122957547E-06
(PID.TID 0000.0001) %MON ke_vol                       =   4.2724661927113E+12
(PID.TID 0000.0001) // =======================================================
(PID.TID 0000.0001) // End MONITOR dynamic field statistics
(PID.TID 0000.0001) // =======================================================
(PID.TID 0000.0001) // =======================================================
(PID.TID 0000.0001) // Begin OBCS MONITOR field statistics
(PID.TID 0000.0001) // =======================================================
(PID.TID 0000.0001) %MON obc_N_vVel_max               =   1.4979666307279E-05
(PID.TID 0000.0001) %MON obc_N_vVel_min               =   1.4979666307278E-05
(PID.TID 0000.0001) %MON obc_N_vVel_mean              =   1.4979666307278E-05
(PID.TID 0000.0001) %MON obc_N_vVel_sd                =   4.1554055502495E-12
(PID.TID 0000.0001) %MON obc_N_vVel_Int               =   9.8865797628038E+02
(PID.TID 0000.0001) // =======================================================
(PID.TID 0000.0001) // End OBCS MONITOR field statistics
(PID.TID 0000.0001) // =======================================================
 cg2d: Sum(rhs),rhsMax =   4.50780869866580E+00  2.99961290415145E+02
(PID.TID 0000.0001)      cg2d_init_res =   1.04137129221738E-05
(PID.TID 0000.0001)      cg2d_iters(min,last) =      -1      84
(PID.TID 0000.0001)      cg2d_last_res =   9.46782619398996E-12
(PID.TID 0000.0001) // =======================================================
(PID.TID 0000.0001) // Begin MONITOR dynamic field statistics
(PID.TID 0000.0001) // =======================================================
(PID.TID 0000.0001) %MON time_tsnumber                =                  1408
(PID.TID 0000.0001) %MON time_secondsf                =   1.4080000000000E+05
(PID.TID 0000.0001) %MON dynstat_eta_max              =   5.8002982046143E+00
(PID.TID 0000.0001) %MON dynstat_eta_min              =  -1.4192022148896E+01
(PID.TID 0000.0001) %MON dynstat_eta_mean             =  -2.5040150262896E+00
(PID.TID 0000.0001) %MON dynstat_eta_sd               =   4.9500605206032E+00
(PID.TID 0000.0001) %MON dynstat_eta_del2             =   2.0716581331443E-01
(PID.TID 0000.0001) %MON dynstat_uvel_max             =   1.1891293769382E-02
(PID.TID 0000.0001) %MON dynstat_uvel_min             =  -5.4159468164509E-02
(PID.TID 0000.0001) %MON dynstat_uvel_mean            =  -1.0675483740894E-07
(PID.TID 0000.0001) %MON dynstat_uvel_sd              =   1.5636241979113E-03
(PID.TID 0000.0001) %MON dynstat_uvel_del2            =   2.3648881977675E-06
(PID.TID 0000.0001) %MON dynstat_vvel_max             =   3.5686100258422E-02
(PID.TID 0000.0001) %MON dynstat_vvel_min             =  -1.8399248853973E-02
(PID.TID 0000.0001) %MON dynstat_vvel_mean            =   1.5277879204649E-05
(PID.TID 0000.0001) %MON dynstat_vvel_sd              =   8.3246672168305E-04
(PID.TID 0000.0001) %MON dynstat_vvel_del2            =   1.7233878901028E-06
(PID.TID 0000.0001) %MON dynstat_wvel_max             =   1.9545417993246E-03
(PID.TID 0000.0001) %MON dynstat_wvel_min             =  -1.8922246152607E-03
(PID.TID 0000.0001) %MON dynstat_wvel_mean            =   7.3121564064657E-09
(PID.TID 0000.0001) %MON dynstat_wvel_sd              =   3.1349484763131E-05
(PID.TID 0000.0001) %MON dynstat_wvel_del2            =   1.2602163978919E-07
(PID.TID 0000.0001) %MON dynstat_theta_max            =   1.2000000000000E+00
(PID.TID 0000.0001) %MON dynstat_theta_min            =  -1.0000000000000E+00
(PID.TID 0000.0001) %MON dynstat_theta_mean           =   5.6832443166526E-01
(PID.TID 0000.0001) %MON dynstat_theta_sd             =   8.6816493969018E-01
(PID.TID 0000.0001) %MON dynstat_theta_del2           =   5.4662727693165E-06
(PID.TID 0000.0001) %MON dynstat_salt_max             =   3.4700000000000E+01
(PID.TID 0000.0001) %MON dynstat_salt_min             =   3.4000000000000E+01
(PID.TID 0000.0001) %MON dynstat_salt_mean            =   3.4498943839282E+01
(PID.TID 0000.0001) %MON dynstat_salt_sd              =   2.7620684436709E-01
(PID.TID 0000.0001) %MON dynstat_salt_del2            =   2.1657279675572E-06
(PID.TID 0000.0001) %MON advcfl_uvel_max              =   5.4159468164509E-03
(PID.TID 0000.0001) %MON advcfl_vvel_max              =   3.5686100258422E-03
(PID.TID 0000.0001) %MON advcfl_wvel_max              =   9.7727089966232E-03
(PID.TID 0000.0001) %MON advcfl_W_hf_max              =   9.7727089966232E-03
(PID.TID 0000.0001) %MON pe_b_mean                    =  -8.2966565773254E-01
(PID.TID 0000.0001) %MON ke_max                       =   1.2140481038305E-03
(PID.TID 0000.0001) %MON ke_mean                      =   1.5448274425266E-06
(PID.TID 0000.0001) %MON ke_vol                       =   4.2724661716356E+12
(PID.TID 0000.0001) // =======================================================
(PID.TID 0000.0001) // End MONITOR dynamic field statistics
(PID.TID 0000.0001) // =======================================================
(PID.TID 0000.0001) // =======================================================
(PID.TID 0000.0001) // Begin OBCS MONITOR field statistics
(PID.TID 0000.0001) // =======================================================
(PID.TID 0000.0001) %MON obc_N_vVel_max               =   1.4972480089943E-05
(PID.TID 0000.0001) %MON obc_N_vVel_min               =   1.4972480089943E-05
(PID.TID 0000.0001) %MON obc_N_vVel_mean              =   1.4972480089943E-05
(PID.TID 0000.0001) %MON obc_N_vVel_sd                =  -1.5974925579930E-23
(PID.TID 0000.0001) %MON obc_N_vVel_Int               =   9.8818368593626E+02
(PID.TID 0000.0001) // =======================================================
(PID.TID 0000.0001) // End OBCS MONITOR field statistics
(PID.TID 0000.0001) // =======================================================
 cg2d: Sum(rhs),rhsMax =   4.50781383497174E+00  2.99961366067663E+02
(PID.TID 0000.0001)      cg2d_init_res =   1.04221615039260E-05
(PID.TID 0000.0001)      cg2d_iters(min,last) =      -1      84
(PID.TID 0000.0001)      cg2d_last_res =   9.47065048160428E-12
(PID.TID 0000.0001) // =======================================================
(PID.TID 0000.0001) // Begin MONITOR dynamic field statistics
(PID.TID 0000.0001) // =======================================================
(PID.TID 0000.0001) %MON time_tsnumber                =                  1409
(PID.TID 0000.0001) %MON time_secondsf                =   1.4090000000000E+05
(PID.TID 0000.0001) %MON dynstat_eta_max              =   5.8003253475585E+00
(PID.TID 0000.0001) %MON dynstat_eta_min              =  -1.4192051902655E+01
(PID.TID 0000.0001) %MON dynstat_eta_mean             =  -2.5040185109571E+00
(PID.TID 0000.0001) %MON dynstat_eta_sd               =   4.9500622266109E+00
(PID.TID 0000.0001) %MON dynstat_eta_del2             =   2.0716586573258E-01
(PID.TID 0000.0001) %MON dynstat_uvel_max             =   1.1918573603904E-02
(PID.TID 0000.0001) %MON dynstat_uvel_min             =  -5.4273280422710E-02
(PID.TID 0000.0001) %MON dynstat_uvel_mean            =  -1.0665501308732E-07
(PID.TID 0000.0001) %MON dynstat_uvel_sd              =   1.5670732925091E-03
(PID.TID 0000.0001) %MON dynstat_uvel_del2            =   2.3706297435632E-06
(PID.TID 0000.0001) %MON dynstat_vvel_max             =   3.5735692580703E-02
(PID.TID 0000.0001) %MON dynstat_vvel_min             =  -1.8443845343151E-02
(PID.TID 0000.0001) %MON dynstat_vvel_mean            =   1.5267293372533E-05
(PID.TID 0000.0001) %MON dynstat_vvel_sd              =   8.3408666524737E-04
(PID.TID 0000.0001) %MON dynstat_vvel_del2            =   1.7267930968719E-06
(PID.TID 0000.0001) %MON dynstat_wvel_max             =   1.9577175500884E-03
(PID.TID 0000.0001) %MON dynstat_wvel_min             =  -1.8954597755392E-03
(PID.TID 0000.0001) %MON dynstat_wvel_mean            =   7.2896811659107E-09
(PID.TID 0000.0001) %MON dynstat_wvel_sd              =   3.1428119342488E-05
(PID.TID 0000.0001) %MON dynstat_wvel_del2            =   1.2627833867627E-07
(PID.TID 0000.0001) %MON dynstat_theta_max            =   1.2000000000000E+00
(PID.TID 0000.0001) %MON dynstat_theta_min            =  -1.0000000000000E+00
(PID.TID 0000.0001) %MON dynstat_theta_mean           =   5.6832286080864E-01
(PID.TID 0000.0001) %MON dynstat_theta_sd             =   8.6816411850338E-01
(PID.TID 0000.0001) %MON dynstat_theta_del2           =   5.4765758946111E-06
(PID.TID 0000.0001) %MON dynstat_salt_max             =   3.4700000000000E+01
(PID.TID 0000.0001) %MON dynstat_salt_min             =   3.4000000000000E+01
(PID.TID 0000.0001) %MON dynstat_salt_mean            =   3.4498943210638E+01
(PID.TID 0000.0001) %MON dynstat_salt_sd              =   2.7620653009091E-01
(PID.TID 0000.0001) %MON dynstat_salt_del2            =   2.1698354778969E-06
(PID.TID 0000.0001) %MON advcfl_uvel_max              =   5.4273280422710E-03
(PID.TID 0000.0001) %MON advcfl_vvel_max              =   3.5735692580703E-03
(PID.TID 0000.0001) %MON advcfl_wvel_max              =   9.7885877504418E-03
(PID.TID 0000.0001) %MON advcfl_W_hf_max              =   9.7885877504418E-03
(PID.TID 0000.0001) %MON pe_b_mean                    =  -8.2966598221436E-01
(PID.TID 0000.0001) %MON ke_max                       =   1.2196543702767E-03
(PID.TID 0000.0001) %MON ke_mean                      =   1.5514690981393E-06
(PID.TID 0000.0001) %MON ke_vol                       =   4.2724661507438E+12
(PID.TID 0000.0001) // =======================================================
(PID.TID 0000.0001) // End MONITOR dynamic field statistics
(PID.TID 0000.0001) // =======================================================
(PID.TID 0000.0001) // =======================================================
(PID.TID 0000.0001) // Begin OBCS MONITOR field statistics
(PID.TID 0000.0001) // =======================================================
(PID.TID 0000.0001) %MON obc_N_vVel_max               =   1.4963985947492E-05
(PID.TID 0000.0001) %MON obc_N_vVel_min               =   1.4963985947492E-05
(PID.TID 0000.0001) %MON obc_N_vVel_mean              =   1.4963985947492E-05
(PID.TID 0000.0001) %MON obc_N_vVel_sd                =  -1.1632227364027E-24
(PID.TID 0000.0001) %MON obc_N_vVel_Int               =   9.8762307253449E+02
(PID.TID 0000.0001) // =======================================================
(PID.TID 0000.0001) // End OBCS MONITOR field statistics
(PID.TID 0000.0001) // =======================================================
 cg2d: Sum(rhs),rhsMax =   4.50781891251190E+00  2.99961441588585E+02
(PID.TID 0000.0001)      cg2d_init_res =   1.04308340019078E-05
(PID.TID 0000.0001)      cg2d_iters(min,last) =      -1      84
(PID.TID 0000.0001)      cg2d_last_res =   9.47456725204591E-12
(PID.TID 0000.0001) // =======================================================
(PID.TID 0000.0001) // Begin MONITOR dynamic field statistics
(PID.TID 0000.0001) // =======================================================
(PID.TID 0000.0001) %MON time_tsnumber                =                  1410
(PID.TID 0000.0001) %MON time_secondsf                =   1.4100000000000E+05
(PID.TID 0000.0001) %MON dynstat_eta_max              =   5.8003526122889E+00
(PID.TID 0000.0001) %MON dynstat_eta_min              =  -1.4192081649002E+01
(PID.TID 0000.0001) %MON dynstat_eta_mean             =  -2.5040219618840E+00
(PID.TID 0000.0001) %MON dynstat_eta_sd               =   4.9500639215909E+00
(PID.TID 0000.0001) %MON dynstat_eta_del2             =   2.0716591822515E-01
(PID.TID 0000.0001) %MON dynstat_uvel_max             =   1.1945896524951E-02
(PID.TID 0000.0001) %MON dynstat_uvel_min             =  -5.4387197817800E-02
(PID.TID 0000.0001) %MON dynstat_uvel_mean            =  -1.0656687169108E-07
(PID.TID 0000.0001) %MON dynstat_uvel_sd              =   1.5705287396445E-03
(PID.TID 0000.0001) %MON dynstat_uvel_del2            =   2.3763852077829E-06
(PID.TID 0000.0001) %MON dynstat_vvel_max             =   3.5785259981108E-02
(PID.TID 0000.0001) %MON dynstat_vvel_min             =  -1.8488531566828E-02
(PID.TID 0000.0001) %MON dynstat_vvel_mean            =   1.5255586605641E-05
(PID.TID 0000.0001) %MON dynstat_vvel_sd              =   8.3570942051612E-04
(PID.TID 0000.0001) %MON dynstat_vvel_del2            =   1.7302038382075E-06
(PID.TID 0000.0001) %MON dynstat_wvel_max             =   1.9608926515573E-03
(PID.TID 0000.0001) %MON dynstat_wvel_min             =  -1.8986957635270E-03
(PID.TID 0000.0001) %MON dynstat_wvel_mean            =   7.2676241174780E-09
(PID.TID 0000.0001) %MON dynstat_wvel_sd              =   3.1506079758086E-05
(PID.TID 0000.0001) %MON dynstat_wvel_del2            =   1.2653869683525E-07
(PID.TID 0000.0001) %MON dynstat_theta_max            =   1.2000000000000E+00
(PID.TID 0000.0001) %MON dynstat_theta_min            =  -1.0000000000000E+00
(PID.TID 0000.0001) %MON dynstat_theta_mean           =   5.6832128721106E-01
(PID.TID 0000.0001) %MON dynstat_theta_sd             =   8.6816329603101E-01
(PID.TID 0000.0001) %MON dynstat_theta_del2           =   5.4868948568150E-06
(PID.TID 0000.0001) %MON dynstat_salt_max             =   3.4700000000000E+01
(PID.TID 0000.0001) %MON dynstat_salt_min             =   3.4000000000000E+01
(PID.TID 0000.0001) %MON dynstat_salt_mean            =   3.4498942580895E+01
(PID.TID 0000.0001) %MON dynstat_salt_sd              =   2.7620621534020E-01
(PID.TID 0000.0001) %MON dynstat_salt_del2            =   2.1739493951204E-06
(PID.TID 0000.0001) %MON advcfl_uvel_max              =   5.4387197817800E-03
(PID.TID 0000.0001) %MON advcfl_vvel_max              =   3.5785259981108E-03
(PID.TID 0000.0001) %MON advcfl_wvel_max              =   9.8044632577864E-03
(PID.TID 0000.0001) %MON advcfl_W_hf_max              =   9.8044632577864E-03
(PID.TID 0000.0001) %MON pe_b_mean                    =  -8.2966629560518E-01
(PID.TID 0000.0001) %MON ke_max                       =   1.2252801629539E-03
(PID.TID 0000.0001) %MON ke_mean                      =   1.5581371501810E-06
(PID.TID 0000.0001) %MON ke_vol                       =   4.2724661300449E+12
(PID.TID 0000.0001) // =======================================================
(PID.TID 0000.0001) // End MONITOR dynamic field statistics
(PID.TID 0000.0001) // =======================================================
(PID.TID 0000.0001) // =======================================================
(PID.TID 0000.0001) // Begin OBCS MONITOR field statistics
(PID.TID 0000.0001) // =======================================================
(PID.TID 0000.0001) %MON obc_N_vVel_max               =   1.4954375099569E-05
(PID.TID 0000.0001) %MON obc_N_vVel_min               =   1.4954375099569E-05
(PID.TID 0000.0001) %MON obc_N_vVel_mean              =   1.4954375099569E-05
(PID.TID 0000.0001) %MON obc_N_vVel_sd                =   3.2792297820051E-12
(PID.TID 0000.0001) %MON obc_N_vVel_Int               =   9.8698875657156E+02
(PID.TID 0000.0001) // =======================================================
(PID.TID 0000.0001) // End OBCS MONITOR field statistics
(PID.TID 0000.0001) // =======================================================
 cg2d: Sum(rhs),rhsMax =   4.50782392931272E+00  2.99961516984508E+02
(PID.TID 0000.0001)      cg2d_init_res =   1.04398174523799E-05
(PID.TID 0000.0001)      cg2d_iters(min,last) =      -1      84
(PID.TID 0000.0001)      cg2d_last_res =   9.47939123242807E-12
(PID.TID 0000.0001) // =======================================================
(PID.TID 0000.0001) // Begin MONITOR dynamic field statistics
(PID.TID 0000.0001) // =======================================================
(PID.TID 0000.0001) %MON time_tsnumber                =                  1411
(PID.TID 0000.0001) %MON time_secondsf                =   1.4110000000000E+05
(PID.TID 0000.0001) %MON dynstat_eta_max              =   5.8003800004575E+00
(PID.TID 0000.0001) %MON dynstat_eta_min              =  -1.4192111387352E+01
(PID.TID 0000.0001) %MON dynstat_eta_mean             =  -2.5040253780291E+00
(PID.TID 0000.0001) %MON dynstat_eta_sd               =   4.9500656054109E+00
(PID.TID 0000.0001) %MON dynstat_eta_del2             =   2.0716597079234E-01
(PID.TID 0000.0001) %MON dynstat_uvel_max             =   1.1973262575280E-02
(PID.TID 0000.0001) %MON dynstat_uvel_min             =  -5.4501219728363E-02
(PID.TID 0000.0001) %MON dynstat_uvel_mean            =  -1.0649144408259E-07
(PID.TID 0000.0001) %MON dynstat_uvel_sd              =   1.5739905452275E-03
(PID.TID 0000.0001) %MON dynstat_uvel_del2            =   2.3821546216972E-06
(PID.TID 0000.0001) %MON dynstat_vvel_max             =   3.5834802289736E-02
(PID.TID 0000.0001) %MON dynstat_vvel_min             =  -1.8533307499968E-02
(PID.TID 0000.0001) %MON dynstat_vvel_mean            =   1.5243015832638E-05
(PID.TID 0000.0001) %MON dynstat_vvel_sd              =   8.3733475430960E-04
(PID.TID 0000.0001) %MON dynstat_vvel_del2            =   1.7336195068313E-06
(PID.TID 0000.0001) %MON dynstat_wvel_max             =   1.9640670818698E-03
(PID.TID 0000.0001) %MON dynstat_wvel_min             =  -1.9019325661471E-03
(PID.TID 0000.0001) %MON dynstat_wvel_mean            =   7.2464519306300E-09
(PID.TID 0000.0001) %MON dynstat_wvel_sd              =   3.1582675589426E-05
(PID.TID 0000.0001) %MON dynstat_wvel_del2            =   1.2679980802303E-07
(PID.TID 0000.0001) %MON dynstat_theta_max            =   1.2000000000000E+00
(PID.TID 0000.0001) %MON dynstat_theta_min            =  -1.0000000000000E+00
(PID.TID 0000.0001) %MON dynstat_theta_mean           =   5.6831971087201E-01
(PID.TID 0000.0001) %MON dynstat_theta_sd             =   8.6816247227237E-01
(PID.TID 0000.0001) %MON dynstat_theta_del2           =   5.4972307718739E-06
(PID.TID 0000.0001) %MON dynstat_salt_max             =   3.4700000000000E+01
(PID.TID 0000.0001) %MON dynstat_salt_min             =   3.4000000000000E+01
(PID.TID 0000.0001) %MON dynstat_salt_mean            =   3.4498941950053E+01
(PID.TID 0000.0001) %MON dynstat_salt_sd              =   2.7620590011467E-01
(PID.TID 0000.0001) %MON dynstat_salt_del2            =   2.1780699927657E-06
(PID.TID 0000.0001) %MON advcfl_uvel_max              =   5.4501219728363E-03
(PID.TID 0000.0001) %MON advcfl_vvel_max              =   3.5834802289736E-03
(PID.TID 0000.0001) %MON advcfl_wvel_max              =   9.8203354093491E-03
(PID.TID 0000.0001) %MON advcfl_W_hf_max              =   9.8203354093491E-03
(PID.TID 0000.0001) %MON pe_b_mean                    =  -8.2966659769291E-01
(PID.TID 0000.0001) %MON ke_max                       =   1.2309255103040E-03
(PID.TID 0000.0001) %MON ke_mean                      =   1.5648314947036E-06
(PID.TID 0000.0001) %MON ke_vol                       =   4.2724661095464E+12
(PID.TID 0000.0001) // =======================================================
(PID.TID 0000.0001) // End MONITOR dynamic field statistics
(PID.TID 0000.0001) // =======================================================
(PID.TID 0000.0001) // =======================================================
(PID.TID 0000.0001) // Begin OBCS MONITOR field statistics
(PID.TID 0000.0001) // =======================================================
(PID.TID 0000.0001) %MON obc_N_vVel_max               =   1.4943859511416E-05
(PID.TID 0000.0001) %MON obc_N_vVel_min               =   1.4943859511415E-05
(PID.TID 0000.0001) %MON obc_N_vVel_mean              =   1.4943859511416E-05
(PID.TID 0000.0001) %MON obc_N_vVel_sd                =  -3.8515597272000E-24
(PID.TID 0000.0001) %MON obc_N_vVel_Int               =   9.8629472775343E+02
(PID.TID 0000.0001) // =======================================================
(PID.TID 0000.0001) // End OBCS MONITOR field statistics
(PID.TID 0000.0001) // =======================================================
 cg2d: Sum(rhs),rhsMax =   4.50782888380893E+00  2.99961592265231E+02
(PID.TID 0000.0001)      cg2d_init_res =   1.04491831736270E-05
(PID.TID 0000.0001)      cg2d_iters(min,last) =      -1      84
(PID.TID 0000.0001)      cg2d_last_res =   9.48522842475689E-12
(PID.TID 0000.0001) // =======================================================
(PID.TID 0000.0001) // Begin MONITOR dynamic field statistics
(PID.TID 0000.0001) // =======================================================
(PID.TID 0000.0001) %MON time_tsnumber                =                  1412
(PID.TID 0000.0001) %MON time_secondsf                =   1.4120000000000E+05
(PID.TID 0000.0001) %MON dynstat_eta_max              =   5.8004075131795E+00
(PID.TID 0000.0001) %MON dynstat_eta_min              =  -1.4192141117386E+01
(PID.TID 0000.0001) %MON dynstat_eta_mean             =  -2.5040287586047E+00
(PID.TID 0000.0001) %MON dynstat_eta_sd               =   4.9500672780323E+00
(PID.TID 0000.0001) %MON dynstat_eta_del2             =   2.0716602343438E-01
(PID.TID 0000.0001) %MON dynstat_uvel_max             =   1.2000671794871E-02
(PID.TID 0000.0001) %MON dynstat_uvel_min             =  -5.4615345527719E-02
(PID.TID 0000.0001) %MON dynstat_uvel_mean            =  -1.0642949806150E-07
(PID.TID 0000.0001) %MON dynstat_uvel_sd              =   1.5774587149052E-03
(PID.TID 0000.0001) %MON dynstat_uvel_del2            =   2.3879380160541E-06
(PID.TID 0000.0001) %MON dynstat_vvel_max             =   3.5884319339949E-02
(PID.TID 0000.0001) %MON dynstat_vvel_min             =  -1.8578173123196E-02
(PID.TID 0000.0001) %MON dynstat_vvel_mean            =   1.5229853086999E-05
(PID.TID 0000.0001) %MON dynstat_vvel_sd              =   8.3896245257501E-04
(PID.TID 0000.0001) %MON dynstat_vvel_del2            =   1.7370395364673E-06
(PID.TID 0000.0001) %MON dynstat_wvel_max             =   1.9672408191647E-03
(PID.TID 0000.0001) %MON dynstat_wvel_min             =  -1.9051701690176E-03
(PID.TID 0000.0001) %MON dynstat_wvel_mean            =   7.2266100408470E-09
(PID.TID 0000.0001) %MON dynstat_wvel_sd              =   3.1657261347928E-05
(PID.TID 0000.0001) %MON dynstat_wvel_del2            =   1.2705879741057E-07
(PID.TID 0000.0001) %MON dynstat_theta_max            =   1.2000000000000E+00
(PID.TID 0000.0001) %MON dynstat_theta_min            =  -1.0000000000000E+00
(PID.TID 0000.0001) %MON dynstat_theta_mean           =   5.6831813179097E-01
(PID.TID 0000.0001) %MON dynstat_theta_sd             =   8.6816164722689E-01
(PID.TID 0000.0001) %MON dynstat_theta_del2           =   5.5075846968810E-06
(PID.TID 0000.0001) %MON dynstat_salt_max             =   3.4700000000000E+01
(PID.TID 0000.0001) %MON dynstat_salt_min             =   3.4000000000000E+01
(PID.TID 0000.0001) %MON dynstat_salt_mean            =   3.4498941318110E+01
(PID.TID 0000.0001) %MON dynstat_salt_sd              =   2.7620558441432E-01
(PID.TID 0000.0001) %MON dynstat_salt_del2            =   2.1821975295297E-06
(PID.TID 0000.0001) %MON advcfl_uvel_max              =   5.4615345527719E-03
(PID.TID 0000.0001) %MON advcfl_vvel_max              =   3.5884319339949E-03
(PID.TID 0000.0001) %MON advcfl_wvel_max              =   9.8362040958233E-03
(PID.TID 0000.0001) %MON advcfl_W_hf_max              =   9.8362040958233E-03
(PID.TID 0000.0001) %MON pe_b_mean                    =  -8.2966688833515E-01
(PID.TID 0000.0001) %MON ke_max                       =   1.2365904406826E-03
(PID.TID 0000.0001) %MON ke_mean                      =   1.5715520423192E-06
(PID.TID 0000.0001) %MON ke_vol                       =   4.2724660892545E+12
(PID.TID 0000.0001) // =======================================================
(PID.TID 0000.0001) // End MONITOR dynamic field statistics
(PID.TID 0000.0001) // =======================================================
(PID.TID 0000.0001) // =======================================================
(PID.TID 0000.0001) // Begin OBCS MONITOR field statistics
(PID.TID 0000.0001) // =======================================================
(PID.TID 0000.0001) %MON obc_N_vVel_max               =   1.4932667438212E-05
(PID.TID 0000.0001) %MON obc_N_vVel_min               =   1.4932667438212E-05
(PID.TID 0000.0001) %MON obc_N_vVel_mean              =   1.4932667438212E-05
(PID.TID 0000.0001) %MON obc_N_vVel_sd                =   4.5503147921839E-12
(PID.TID 0000.0001) %MON obc_N_vVel_Int               =   9.8555605092196E+02
(PID.TID 0000.0001) // =======================================================
(PID.TID 0000.0001) // End OBCS MONITOR field statistics
(PID.TID 0000.0001) // =======================================================
 cg2d: Sum(rhs),rhsMax =   4.50783377487063E+00  2.99961667443492E+02
(PID.TID 0000.0001)      cg2d_init_res =   1.04589947249098E-05
(PID.TID 0000.0001)      cg2d_iters(min,last) =      -1      84
(PID.TID 0000.0001)      cg2d_last_res =   9.49215626761760E-12
(PID.TID 0000.0001) // =======================================================
(PID.TID 0000.0001) // Begin MONITOR dynamic field statistics
(PID.TID 0000.0001) // =======================================================
(PID.TID 0000.0001) %MON time_tsnumber                =                  1413
(PID.TID 0000.0001) %MON time_secondsf                =   1.4130000000000E+05
(PID.TID 0000.0001) %MON dynstat_eta_max              =   5.8004351510220E+00
(PID.TID 0000.0001) %MON dynstat_eta_min              =  -1.4192170839056E+01
(PID.TID 0000.0001) %MON dynstat_eta_mean             =  -2.5040321030894E+00
(PID.TID 0000.0001) %MON dynstat_eta_sd               =   4.9500689395110E+00
(PID.TID 0000.0001) %MON dynstat_eta_del2             =   2.0716607615158E-01
(PID.TID 0000.0001) %MON dynstat_uvel_max             =   1.2028124224985E-02
(PID.TID 0000.0001) %MON dynstat_uvel_min             =  -5.4729574582738E-02
(PID.TID 0000.0001) %MON dynstat_uvel_mean            =  -1.0638152810738E-07
(PID.TID 0000.0001) %MON dynstat_uvel_sd              =   1.5809332540136E-03
(PID.TID 0000.0001) %MON dynstat_uvel_del2            =   2.3937354209527E-06
(PID.TID 0000.0001) %MON dynstat_vvel_max             =   3.5933810967154E-02
(PID.TID 0000.0001) %MON dynstat_vvel_min             =  -1.8623128415788E-02
(PID.TID 0000.0001) %MON dynstat_vvel_mean            =   1.5216379914098E-05
(PID.TID 0000.0001) %MON dynstat_vvel_sd              =   8.4059232717104E-04
(PID.TID 0000.0001) %MON dynstat_vvel_del2            =   1.7404634402084E-06
(PID.TID 0000.0001) %MON dynstat_wvel_max             =   1.9704138415687E-03
(PID.TID 0000.0001) %MON dynstat_wvel_min             =  -1.9084085581438E-03
(PID.TID 0000.0001) %MON dynstat_wvel_mean            =   7.2085130038651E-09
(PID.TID 0000.0001) %MON dynstat_wvel_sd              =   3.1729266970259E-05
(PID.TID 0000.0001) %MON dynstat_wvel_del2            =   1.2731300947764E-07
(PID.TID 0000.0001) %MON dynstat_theta_max            =   1.2000000000000E+00
(PID.TID 0000.0001) %MON dynstat_theta_min            =  -1.0000000000000E+00
(PID.TID 0000.0001) %MON dynstat_theta_mean           =   5.6831654996731E-01
(PID.TID 0000.0001) %MON dynstat_theta_sd             =   8.6816082089483E-01
(PID.TID 0000.0001) %MON dynstat_theta_del2           =   5.5179575729728E-06
(PID.TID 0000.0001) %MON dynstat_salt_max             =   3.4700000000000E+01
(PID.TID 0000.0001) %MON dynstat_salt_min             =   3.4000000000000E+01
(PID.TID 0000.0001) %MON dynstat_salt_mean            =   3.4498940685068E+01
(PID.TID 0000.0001) %MON dynstat_salt_sd              =   2.7620526823871E-01
(PID.TID 0000.0001) %MON dynstat_salt_del2            =   2.1863321494271E-06
(PID.TID 0000.0001) %MON advcfl_uvel_max              =   5.4729574582738E-03
(PID.TID 0000.0001) %MON advcfl_vvel_max              =   3.5933810967154E-03
(PID.TID 0000.0001) %MON advcfl_wvel_max              =   9.8520692078433E-03
(PID.TID 0000.0001) %MON advcfl_W_hf_max              =   9.8520692078433E-03
(PID.TID 0000.0001) %MON pe_b_mean                    =  -8.2966716746124E-01
(PID.TID 0000.0001) %MON ke_max                       =   1.2422749823237E-03
(PID.TID 0000.0001) %MON ke_mean                      =   1.5782987238883E-06
(PID.TID 0000.0001) %MON ke_vol                       =   4.2724660691739E+12
(PID.TID 0000.0001) // =======================================================
(PID.TID 0000.0001) // End MONITOR dynamic field statistics
(PID.TID 0000.0001) // =======================================================
(PID.TID 0000.0001) // =======================================================
(PID.TID 0000.0001) // Begin OBCS MONITOR field statistics
(PID.TID 0000.0001) // =======================================================
(PID.TID 0000.0001) %MON obc_N_vVel_max               =   1.4921038712153E-05
(PID.TID 0000.0001) %MON obc_N_vVel_min               =   1.4921038712152E-05
(PID.TID 0000.0001) %MON obc_N_vVel_mean              =   1.4921038712152E-05
(PID.TID 0000.0001) %MON obc_N_vVel_sd                =   4.0769057425316E-12
(PID.TID 0000.0001) %MON obc_N_vVel_Int               =   9.8478855500204E+02
(PID.TID 0000.0001) // =======================================================
(PID.TID 0000.0001) // End OBCS MONITOR field statistics
(PID.TID 0000.0001) // =======================================================
 cg2d: Sum(rhs),rhsMax =   4.50783860182057E+00  2.99961742534700E+02
(PID.TID 0000.0001)      cg2d_init_res =   1.04693085064693E-05
(PID.TID 0000.0001)      cg2d_iters(min,last) =      -1      84
(PID.TID 0000.0001)      cg2d_last_res =   9.50022570603813E-12
(PID.TID 0000.0001) // =======================================================
(PID.TID 0000.0001) // Begin MONITOR dynamic field statistics
(PID.TID 0000.0001) // =======================================================
(PID.TID 0000.0001) %MON time_tsnumber                =                  1414
(PID.TID 0000.0001) %MON time_secondsf                =   1.4140000000000E+05
(PID.TID 0000.0001) %MON dynstat_eta_max              =   5.8004629140011E+00
(PID.TID 0000.0001) %MON dynstat_eta_min              =  -1.4192200552593E+01
(PID.TID 0000.0001) %MON dynstat_eta_mean             =  -2.5040354112357E+00
(PID.TID 0000.0001) %MON dynstat_eta_sd               =   4.9500705899945E+00
(PID.TID 0000.0001) %MON dynstat_eta_del2             =   2.0716612894429E-01
(PID.TID 0000.0001) %MON dynstat_uvel_max             =   1.2055619918002E-02
(PID.TID 0000.0001) %MON dynstat_uvel_min             =  -5.4843906251444E-02
(PID.TID 0000.0001) %MON dynstat_uvel_mean            =  -1.0634771693928E-07
(PID.TID 0000.0001) %MON dynstat_uvel_sd              =   1.5844141635632E-03
(PID.TID 0000.0001) %MON dynstat_uvel_del2            =   2.3995468639666E-06
(PID.TID 0000.0001) %MON dynstat_vvel_max             =   3.5983277007830E-02
(PID.TID 0000.0001) %MON dynstat_vvel_min             =  -1.8668173298623E-02
(PID.TID 0000.0001) %MON dynstat_vvel_mean            =   1.5202881639714E-05
(PID.TID 0000.0001) %MON dynstat_vvel_sd              =   8.4222422041763E-04
(PID.TID 0000.0001) %MON dynstat_vvel_del2            =   1.7438908277788E-06
(PID.TID 0000.0001) %MON dynstat_wvel_max             =   1.9735861272164E-03
(PID.TID 0000.0001) %MON dynstat_wvel_min             =  -1.9116460611422E-03
(PID.TID 0000.0001) %MON dynstat_wvel_mean            =   7.1925363876516E-09
(PID.TID 0000.0001) %MON dynstat_wvel_sd              =   3.1798221615198E-05
(PID.TID 0000.0001) %MON dynstat_wvel_del2            =   1.2756015959568E-07
(PID.TID 0000.0001) %MON dynstat_theta_max            =   1.2000000000000E+00
(PID.TID 0000.0001) %MON dynstat_theta_min            =  -1.0000000000000E+00
(PID.TID 0000.0001) %MON dynstat_theta_mean           =   5.6831496540036E-01
(PID.TID 0000.0001) %MON dynstat_theta_sd             =   8.6815999327418E-01
(PID.TID 0000.0001) %MON dynstat_theta_del2           =   5.5283502914300E-06
(PID.TID 0000.0001) %MON dynstat_salt_max             =   3.4700000000000E+01
(PID.TID 0000.0001) %MON dynstat_salt_min             =   3.4000000000000E+01
(PID.TID 0000.0001) %MON dynstat_salt_mean            =   3.4498940050924E+01
(PID.TID 0000.0001) %MON dynstat_salt_sd              =   2.7620495158499E-01
(PID.TID 0000.0001) %MON dynstat_salt_del2            =   2.1904706881296E-06
(PID.TID 0000.0001) %MON advcfl_uvel_max              =   5.4843906251444E-03
(PID.TID 0000.0001) %MON advcfl_vvel_max              =   3.5983277007830E-03
(PID.TID 0000.0001) %MON advcfl_wvel_max              =   9.8679306360821E-03
(PID.TID 0000.0001) %MON advcfl_W_hf_max              =   9.8679306360821E-03
(PID.TID 0000.0001) %MON pe_b_mean                    =  -8.2966743507276E-01
(PID.TID 0000.0001) %MON ke_max                       =   1.2479791632352E-03
(PID.TID 0000.0001) %MON ke_mean                      =   1.5850714882292E-06
(PID.TID 0000.0001) %MON ke_vol                       =   4.2724660493076E+12
(PID.TID 0000.0001) // =======================================================
(PID.TID 0000.0001) // End MONITOR dynamic field statistics
(PID.TID 0000.0001) // =======================================================
(PID.TID 0000.0001) // =======================================================
(PID.TID 0000.0001) // Begin OBCS MONITOR field statistics
(PID.TID 0000.0001) // =======================================================
(PID.TID 0000.0001) %MON obc_N_vVel_max               =   1.4909219804165E-05
(PID.TID 0000.0001) %MON obc_N_vVel_min               =   1.4909219804164E-05
(PID.TID 0000.0001) %MON obc_N_vVel_mean              =   1.4909219804164E-05
(PID.TID 0000.0001) %MON obc_N_vVel_sd                =   2.9514819711374E-12
(PID.TID 0000.0001) %MON obc_N_vVel_Int               =   9.8400850707486E+02
(PID.TID 0000.0001) // =======================================================
(PID.TID 0000.0001) // End OBCS MONITOR field statistics
(PID.TID 0000.0001) // =======================================================
 cg2d: Sum(rhs),rhsMax =   4.50784336444312E+00  2.99961817556490E+02
(PID.TID 0000.0001)      cg2d_init_res =   1.04802412915142E-05
(PID.TID 0000.0001)      cg2d_iters(min,last) =      -1      84
(PID.TID 0000.0001)      cg2d_last_res =   9.51087570645243E-12
(PID.TID 0000.0001) // =======================================================
(PID.TID 0000.0001) // Begin MONITOR dynamic field statistics
(PID.TID 0000.0001) // =======================================================
(PID.TID 0000.0001) %MON time_tsnumber                =                  1415
(PID.TID 0000.0001) %MON time_secondsf                =   1.4150000000000E+05
(PID.TID 0000.0001) %MON dynstat_eta_max              =   5.8004908015818E+00
(PID.TID 0000.0001) %MON dynstat_eta_min              =  -1.4192230258490E+01
(PID.TID 0000.0001) %MON dynstat_eta_mean             =  -2.5040386830710E+00
(PID.TID 0000.0001) %MON dynstat_eta_sd               =   4.9500722296777E+00
(PID.TID 0000.0001) %MON dynstat_eta_del2             =   2.0716618181211E-01
(PID.TID 0000.0001) %MON dynstat_uvel_max             =   1.2083158944851E-02
(PID.TID 0000.0001) %MON dynstat_uvel_min             =  -5.4958339882866E-02
(PID.TID 0000.0001) %MON dynstat_uvel_mean            =  -1.0632799953772E-07
(PID.TID 0000.0001) %MON dynstat_uvel_sd              =   1.5879014454341E-03
(PID.TID 0000.0001) %MON dynstat_uvel_del2            =   2.4053723957898E-06
(PID.TID 0000.0001) %MON dynstat_vvel_max             =   3.6032717298130E-02
(PID.TID 0000.0001) %MON dynstat_vvel_min             =  -1.8713307682196E-02
(PID.TID 0000.0001) %MON dynstat_vvel_mean            =   1.5189641716243E-05
(PID.TID 0000.0001) %MON dynstat_vvel_sd              =   8.4385801120549E-04
(PID.TID 0000.0001) %MON dynstat_vvel_del2            =   1.7473214166938E-06
(PID.TID 0000.0001) %MON dynstat_wvel_max             =   1.9767576542309E-03
(PID.TID 0000.0001) %MON dynstat_wvel_min             =  -1.9148818923251E-03
(PID.TID 0000.0001) %MON dynstat_wvel_mean            =   7.1790132789198E-09
(PID.TID 0000.0001) %MON dynstat_wvel_sd              =   3.1863779031002E-05
(PID.TID 0000.0001) %MON dynstat_wvel_del2            =   1.2779848990699E-07
(PID.TID 0000.0001) %MON dynstat_theta_max            =   1.2000000000000E+00
(PID.TID 0000.0001) %MON dynstat_theta_min            =  -1.0000000000000E+00
(PID.TID 0000.0001) %MON dynstat_theta_mean           =   5.6831337808928E-01
(PID.TID 0000.0001) %MON dynstat_theta_sd             =   8.6815916436474E-01
(PID.TID 0000.0001) %MON dynstat_theta_del2           =   5.5387589861023E-06
(PID.TID 0000.0001) %MON dynstat_salt_max             =   3.4700000000000E+01
(PID.TID 0000.0001) %MON dynstat_salt_min             =   3.4000000000000E+01
(PID.TID 0000.0001) %MON dynstat_salt_mean            =   3.4498939415679E+01
(PID.TID 0000.0001) %MON dynstat_salt_sd              =   2.7620463445613E-01
(PID.TID 0000.0001) %MON dynstat_salt_del2            =   2.1946140970010E-06
(PID.TID 0000.0001) %MON advcfl_uvel_max              =   5.4958339882866E-03
(PID.TID 0000.0001) %MON advcfl_vvel_max              =   3.6032717298130E-03
(PID.TID 0000.0001) %MON advcfl_wvel_max              =   9.8837882711547E-03
(PID.TID 0000.0001) %MON advcfl_W_hf_max              =   9.8837882711547E-03
(PID.TID 0000.0001) %MON pe_b_mean                    =  -8.2966769124245E-01
(PID.TID 0000.0001) %MON ke_max                       =   1.2537030111630E-03
(PID.TID 0000.0001) %MON ke_mean                      =   1.5918703154443E-06
(PID.TID 0000.0001) %MON ke_vol                       =   4.2724660296573E+12
(PID.TID 0000.0001) // =======================================================
(PID.TID 0000.0001) // End MONITOR dynamic field statistics
(PID.TID 0000.0001) // =======================================================
(PID.TID 0000.0001) // =======================================================
(PID.TID 0000.0001) // Begin OBCS MONITOR field statistics
(PID.TID 0000.0001) // =======================================================
(PID.TID 0000.0001) %MON obc_N_vVel_max               =   1.4897458796049E-05
(PID.TID 0000.0001) %MON obc_N_vVel_min               =   1.4897458796048E-05
(PID.TID 0000.0001) %MON obc_N_vVel_mean              =   1.4897458796048E-05
(PID.TID 0000.0001) %MON obc_N_vVel_sd                =   3.2315871075188E-12
(PID.TID 0000.0001) %MON obc_N_vVel_Int               =   9.8323228053919E+02
(PID.TID 0000.0001) // =======================================================
(PID.TID 0000.0001) // End OBCS MONITOR field statistics
(PID.TID 0000.0001) // =======================================================
 cg2d: Sum(rhs),rhsMax =   4.50784806298448E+00  2.99961892528358E+02
(PID.TID 0000.0001)      cg2d_init_res =   1.04916647458144E-05
(PID.TID 0000.0001)      cg2d_iters(min,last) =      -1      84
(PID.TID 0000.0001)      cg2d_last_res =   9.52122132131430E-12
(PID.TID 0000.0001) // =======================================================
(PID.TID 0000.0001) // Begin MONITOR dynamic field statistics
(PID.TID 0000.0001) // =======================================================
(PID.TID 0000.0001) %MON time_tsnumber                =                  1416
(PID.TID 0000.0001) %MON time_secondsf                =   1.4160000000000E+05
(PID.TID 0000.0001) %MON dynstat_eta_max              =   5.8005188127033E+00
(PID.TID 0000.0001) %MON dynstat_eta_min              =  -1.4192259957490E+01
(PID.TID 0000.0001) %MON dynstat_eta_mean             =  -2.5040419188947E+00
(PID.TID 0000.0001) %MON dynstat_eta_sd               =   4.9500738589128E+00
(PID.TID 0000.0001) %MON dynstat_eta_del2             =   2.0716623475601E-01
(PID.TID 0000.0001) %MON dynstat_uvel_max             =   1.2110741255107E-02
(PID.TID 0000.0001) %MON dynstat_uvel_min             =  -5.5072874827547E-02
(PID.TID 0000.0001) %MON dynstat_uvel_mean            =  -1.0632205925669E-07
(PID.TID 0000.0001) %MON dynstat_uvel_sd              =   1.5913951085218E-03
(PID.TID 0000.0001) %MON dynstat_uvel_del2            =   2.4112120376441E-06
(PID.TID 0000.0001) %MON dynstat_vvel_max             =   3.6082131672878E-02
(PID.TID 0000.0001) %MON dynstat_vvel_min             =  -1.8758531000978E-02
(PID.TID 0000.0001) %MON dynstat_vvel_mean            =   1.5176935438478E-05
(PID.TID 0000.0001) %MON dynstat_vvel_sd              =   8.4549361739119E-04
(PID.TID 0000.0001) %MON dynstat_vvel_del2            =   1.7507550915664E-06
(PID.TID 0000.0001) %MON dynstat_wvel_max             =   1.9799284007612E-03
(PID.TID 0000.0001) %MON dynstat_wvel_min             =  -1.9181184519275E-03
(PID.TID 0000.0001) %MON dynstat_wvel_mean            =   7.1682198586007E-09
(PID.TID 0000.0001) %MON dynstat_wvel_sd              =   3.1925733058805E-05
(PID.TID 0000.0001) %MON dynstat_wvel_del2            =   1.2802687128622E-07
(PID.TID 0000.0001) %MON dynstat_theta_max            =   1.2000000000000E+00
(PID.TID 0000.0001) %MON dynstat_theta_min            =  -1.0000000000000E+00
(PID.TID 0000.0001) %MON dynstat_theta_mean           =   5.6831178803316E-01
(PID.TID 0000.0001) %MON dynstat_theta_sd             =   8.6815833416697E-01
(PID.TID 0000.0001) %MON dynstat_theta_del2           =   5.5491857235664E-06
(PID.TID 0000.0001) %MON dynstat_salt_max             =   3.4700000000000E+01
(PID.TID 0000.0001) %MON dynstat_salt_min             =   3.4000000000000E+01
(PID.TID 0000.0001) %MON dynstat_salt_mean            =   3.4498938779332E+01
(PID.TID 0000.0001) %MON dynstat_salt_sd              =   2.7620431685204E-01
(PID.TID 0000.0001) %MON dynstat_salt_del2            =   2.1987646985899E-06
(PID.TID 0000.0001) %MON advcfl_uvel_max              =   5.5072874827547E-03
(PID.TID 0000.0001) %MON advcfl_vvel_max              =   3.6082131672878E-03
(PID.TID 0000.0001) %MON advcfl_wvel_max              =   9.8996420038058E-03
(PID.TID 0000.0001) %MON advcfl_W_hf_max              =   9.8996420038058E-03
(PID.TID 0000.0001) %MON pe_b_mean                    =  -8.2966793611229E-01
(PID.TID 0000.0001) %MON ke_max                       =   1.2594465539729E-03
(PID.TID 0000.0001) %MON ke_mean                      =   1.5986952287477E-06
(PID.TID 0000.0001) %MON ke_vol                       =   4.2724660102226E+12
(PID.TID 0000.0001) // =======================================================
(PID.TID 0000.0001) // End MONITOR dynamic field statistics
(PID.TID 0000.0001) // =======================================================
(PID.TID 0000.0001) // =======================================================
(PID.TID 0000.0001) // Begin OBCS MONITOR field statistics
(PID.TID 0000.0001) // =======================================================
(PID.TID 0000.0001) %MON obc_N_vVel_max               =   1.4886000361113E-05
(PID.TID 0000.0001) %MON obc_N_vVel_min               =   1.4886000361113E-05
(PID.TID 0000.0001) %MON obc_N_vVel_mean              =   1.4886000361113E-05
(PID.TID 0000.0001) %MON obc_N_vVel_sd                =  -1.1994118882019E-23
(PID.TID 0000.0001) %MON obc_N_vVel_Int               =   9.8247602383344E+02
(PID.TID 0000.0001) // =======================================================
(PID.TID 0000.0001) // End OBCS MONITOR field statistics
(PID.TID 0000.0001) // =======================================================
 cg2d: Sum(rhs),rhsMax =   4.50785269814334E+00  2.99961967471162E+02
(PID.TID 0000.0001)      cg2d_init_res =   1.05037476005465E-05
(PID.TID 0000.0001)      cg2d_iters(min,last) =      -1      84
(PID.TID 0000.0001)      cg2d_last_res =   9.53280335289670E-12
(PID.TID 0000.0001) // =======================================================
(PID.TID 0000.0001) // Begin MONITOR dynamic field statistics
(PID.TID 0000.0001) // =======================================================
(PID.TID 0000.0001) %MON time_tsnumber                =                  1417
(PID.TID 0000.0001) %MON time_secondsf                =   1.4170000000000E+05
(PID.TID 0000.0001) %MON dynstat_eta_max              =   5.8005469458031E+00
(PID.TID 0000.0001) %MON dynstat_eta_min              =  -1.4192289650578E+01
(PID.TID 0000.0001) %MON dynstat_eta_mean             =  -2.5040451192690E+00
(PID.TID 0000.0001) %MON dynstat_eta_sd               =   4.9500754780965E+00
(PID.TID 0000.0001) %MON dynstat_eta_del2             =   2.0716628777676E-01
(PID.TID 0000.0001) %MON dynstat_uvel_max             =   1.2138366927630E-02
(PID.TID 0000.0001) %MON dynstat_uvel_min             =  -5.5187510424655E-02
(PID.TID 0000.0001) %MON dynstat_uvel_mean            =  -1.0632925653565E-07
(PID.TID 0000.0001) %MON dynstat_uvel_sd              =   1.5948951567576E-03
(PID.TID 0000.0001) %MON dynstat_uvel_del2            =   2.4170658154607E-06
(PID.TID 0000.0001) %MON dynstat_vvel_max             =   3.6131519964281E-02
(PID.TID 0000.0001) %MON dynstat_vvel_min             =  -1.8803843196924E-02
(PID.TID 0000.0001) %MON dynstat_vvel_mean            =   1.5165025057860E-05
(PID.TID 0000.0001) %MON dynstat_vvel_sd              =   8.4713100053520E-04
(PID.TID 0000.0001) %MON dynstat_vvel_del2            =   1.7541919089876E-06
(PID.TID 0000.0001) %MON dynstat_wvel_max             =   1.9830983449667E-03
(PID.TID 0000.0001) %MON dynstat_wvel_min             =  -1.9213559244506E-03
(PID.TID 0000.0001) %MON dynstat_wvel_mean            =   7.1603740389132E-09
(PID.TID 0000.0001) %MON dynstat_wvel_sd              =   3.1984018575823E-05
(PID.TID 0000.0001) %MON dynstat_wvel_del2            =   1.2824480755567E-07
(PID.TID 0000.0001) %MON dynstat_theta_max            =   1.2000000000000E+00
(PID.TID 0000.0001) %MON dynstat_theta_min            =  -1.0000000000000E+00
(PID.TID 0000.0001) %MON dynstat_theta_mean           =   5.6831019523105E-01
(PID.TID 0000.0001) %MON dynstat_theta_sd             =   8.6815750268017E-01
(PID.TID 0000.0001) %MON dynstat_theta_del2           =   5.5596333982581E-06
(PID.TID 0000.0001) %MON dynstat_salt_max             =   3.4700000000000E+01
(PID.TID 0000.0001) %MON dynstat_salt_min             =   3.4000000000000E+01
(PID.TID 0000.0001) %MON dynstat_salt_mean            =   3.4498938141881E+01
(PID.TID 0000.0001) %MON dynstat_salt_sd              =   2.7620399877279E-01
(PID.TID 0000.0001) %MON dynstat_salt_del2            =   2.2029231211638E-06
(PID.TID 0000.0001) %MON advcfl_uvel_max              =   5.5187510424655E-03
(PID.TID 0000.0001) %MON advcfl_vvel_max              =   3.6131519964281E-03
(PID.TID 0000.0001) %MON advcfl_wvel_max              =   9.9154917248334E-03
(PID.TID 0000.0001) %MON advcfl_W_hf_max              =   9.9154917248334E-03
(PID.TID 0000.0001) %MON pe_b_mean                    =  -8.2966816988936E-01
(PID.TID 0000.0001) %MON ke_max                       =   1.2652098193034E-03
(PID.TID 0000.0001) %MON ke_mean                      =   1.6055462801166E-06
(PID.TID 0000.0001) %MON ke_vol                       =   4.2724659910018E+12
(PID.TID 0000.0001) // =======================================================
(PID.TID 0000.0001) // End MONITOR dynamic field statistics
(PID.TID 0000.0001) // =======================================================
(PID.TID 0000.0001) // =======================================================
(PID.TID 0000.0001) // Begin OBCS MONITOR field statistics
(PID.TID 0000.0001) // =======================================================
(PID.TID 0000.0001) %MON obc_N_vVel_max               =   1.4875080851314E-05
(PID.TID 0000.0001) %MON obc_N_vVel_min               =   1.4875080851314E-05
(PID.TID 0000.0001) %MON obc_N_vVel_mean              =   1.4875080851314E-05
(PID.TID 0000.0001) %MON obc_N_vVel_sd                =   3.5151117194210E-12
(PID.TID 0000.0001) %MON obc_N_vVel_Int               =   9.8175533618674E+02
(PID.TID 0000.0001) // =======================================================
(PID.TID 0000.0001) // End OBCS MONITOR field statistics
(PID.TID 0000.0001) // =======================================================
 cg2d: Sum(rhs),rhsMax =   4.50785727104378E+00  2.99962042406626E+02
(PID.TID 0000.0001)      cg2d_init_res =   1.05164855774169E-05
(PID.TID 0000.0001)      cg2d_iters(min,last) =      -1      84
(PID.TID 0000.0001)      cg2d_last_res =   9.54542738612377E-12
(PID.TID 0000.0001) // =======================================================
(PID.TID 0000.0001) // Begin MONITOR dynamic field statistics
(PID.TID 0000.0001) // =======================================================
(PID.TID 0000.0001) %MON time_tsnumber                =                  1418
(PID.TID 0000.0001) %MON time_secondsf                =   1.4180000000000E+05
(PID.TID 0000.0001) %MON dynstat_eta_max              =   5.8005751988656E+00
(PID.TID 0000.0001) %MON dynstat_eta_min              =  -1.4192319338935E+01
(PID.TID 0000.0001) %MON dynstat_eta_mean             =  -2.5040482849997E+00
(PID.TID 0000.0001) %MON dynstat_eta_sd               =   4.9500770876838E+00
(PID.TID 0000.0001) %MON dynstat_eta_del2             =   2.0716634087487E-01
(PID.TID 0000.0001) %MON dynstat_uvel_max             =   1.2166036014026E-02
(PID.TID 0000.0001) %MON dynstat_uvel_min             =  -5.5302245996678E-02
(PID.TID 0000.0001) %MON dynstat_uvel_mean            =  -1.0634871987327E-07
(PID.TID 0000.0001) %MON dynstat_uvel_sd              =   1.5984015933278E-03
(PID.TID 0000.0001) %MON dynstat_uvel_del2            =   2.4229337553615E-06
(PID.TID 0000.0001) %MON dynstat_vvel_max             =   3.6180882000884E-02
(PID.TID 0000.0001) %MON dynstat_vvel_min             =  -1.8849244187843E-02
(PID.TID 0000.0001) %MON dynstat_vvel_mean            =   1.5154154387667E-05
(PID.TID 0000.0001) %MON dynstat_vvel_sd              =   8.4877016412338E-04
(PID.TID 0000.0001) %MON dynstat_vvel_del2            =   1.7576320664402E-06
(PID.TID 0000.0001) %MON dynstat_wvel_max             =   1.9862674650347E-03
(PID.TID 0000.0001) %MON dynstat_wvel_min             =  -1.9245942879922E-03
(PID.TID 0000.0001) %MON dynstat_wvel_mean            =   7.1556345326505E-09
(PID.TID 0000.0001) %MON dynstat_wvel_sd              =   3.2038711598942E-05
(PID.TID 0000.0001) %MON dynstat_wvel_del2            =   1.2845243594150E-07
(PID.TID 0000.0001) %MON dynstat_theta_max            =   1.2000000000000E+00
(PID.TID 0000.0001) %MON dynstat_theta_min            =  -1.0000000000000E+00
(PID.TID 0000.0001) %MON dynstat_theta_mean           =   5.6830859968129E-01
(PID.TID 0000.0001) %MON dynstat_theta_sd             =   8.6815666990420E-01
(PID.TID 0000.0001) %MON dynstat_theta_del2           =   5.5701013662220E-06
(PID.TID 0000.0001) %MON dynstat_salt_max             =   3.4700000000000E+01
(PID.TID 0000.0001) %MON dynstat_salt_min             =   3.4000000000000E+01
(PID.TID 0000.0001) %MON dynstat_salt_mean            =   3.4498937503327E+01
(PID.TID 0000.0001) %MON dynstat_salt_sd              =   2.7620368021809E-01
(PID.TID 0000.0001) %MON dynstat_salt_del2            =   2.2070891141315E-06
(PID.TID 0000.0001) %MON advcfl_uvel_max              =   5.5302245996678E-03
(PID.TID 0000.0001) %MON advcfl_vvel_max              =   3.6180882000884E-03
(PID.TID 0000.0001) %MON advcfl_wvel_max              =   9.9313373251736E-03
(PID.TID 0000.0001) %MON advcfl_W_hf_max              =   9.9313373251736E-03
(PID.TID 0000.0001) %MON pe_b_mean                    =  -8.2966839283858E-01
(PID.TID 0000.0001) %MON ke_max                       =   1.2709928342457E-03
(PID.TID 0000.0001) %MON ke_mean                      =   1.6124235555870E-06
(PID.TID 0000.0001) %MON ke_vol                       =   4.2724659719915E+12
(PID.TID 0000.0001) // =======================================================
(PID.TID 0000.0001) // End MONITOR dynamic field statistics
(PID.TID 0000.0001) // =======================================================
(PID.TID 0000.0001) // =======================================================
(PID.TID 0000.0001) // Begin OBCS MONITOR field statistics
(PID.TID 0000.0001) // =======================================================
(PID.TID 0000.0001) %MON obc_N_vVel_max               =   1.4864923602789E-05
(PID.TID 0000.0001) %MON obc_N_vVel_min               =   1.4864923602788E-05
(PID.TID 0000.0001) %MON obc_N_vVel_mean              =   1.4864923602789E-05
(PID.TID 0000.0001) %MON obc_N_vVel_sd                =  -2.4608623223453E-23
(PID.TID 0000.0001) %MON obc_N_vVel_Int               =   9.8108495778405E+02
(PID.TID 0000.0001) // =======================================================
(PID.TID 0000.0001) // End OBCS MONITOR field statistics
(PID.TID 0000.0001) // =======================================================
 cg2d: Sum(rhs),rhsMax =   4.50786178321283E+00  2.99962117356854E+02
(PID.TID 0000.0001)      cg2d_init_res =   1.05298622054339E-05
(PID.TID 0000.0001)      cg2d_iters(min,last) =      -1      84
(PID.TID 0000.0001)      cg2d_last_res =   9.55913237121979E-12
(PID.TID 0000.0001) // =======================================================
(PID.TID 0000.0001) // Begin MONITOR dynamic field statistics
(PID.TID 0000.0001) // =======================================================
(PID.TID 0000.0001) %MON time_tsnumber                =                  1419
(PID.TID 0000.0001) %MON time_secondsf                =   1.4190000000000E+05
(PID.TID 0000.0001) %MON dynstat_eta_max              =   5.8006035694574E+00
(PID.TID 0000.0001) %MON dynstat_eta_min              =  -1.4192349023936E+01
(PID.TID 0000.0001) %MON dynstat_eta_mean             =  -2.5040514171196E+00
(PID.TID 0000.0001) %MON dynstat_eta_sd               =   4.9500786881642E+00
(PID.TID 0000.0001) %MON dynstat_eta_del2             =   2.0716639404980E-01
(PID.TID 0000.0001) %MON dynstat_uvel_max             =   1.2193748543289E-02
(PID.TID 0000.0001) %MON dynstat_uvel_min             =  -5.5417080855762E-02
(PID.TID 0000.0001) %MON dynstat_uvel_mean            =  -1.0637933377221E-07
(PID.TID 0000.0001) %MON dynstat_uvel_sd              =   1.6019144208412E-03
(PID.TID 0000.0001) %MON dynstat_uvel_del2            =   2.4288158816483E-06
(PID.TID 0000.0001) %MON dynstat_vvel_max             =   3.6230217606582E-02
(PID.TID 0000.0001) %MON dynstat_vvel_min             =  -1.8894733893058E-02
(PID.TID 0000.0001) %MON dynstat_vvel_mean            =   1.5144543999198E-05
(PID.TID 0000.0001) %MON dynstat_vvel_sd              =   8.5041115243232E-04
(PID.TID 0000.0001) %MON dynstat_vvel_del2            =   1.7610758848605E-06
(PID.TID 0000.0001) %MON dynstat_wvel_max             =   1.9894357391765E-03
(PID.TID 0000.0001) %MON dynstat_wvel_min             =  -1.9278335304259E-03
(PID.TID 0000.0001) %MON dynstat_wvel_mean            =   7.1540978463156E-09
(PID.TID 0000.0001) %MON dynstat_wvel_sd              =   3.2090021517350E-05
(PID.TID 0000.0001) %MON dynstat_wvel_del2            =   1.2865047345023E-07
(PID.TID 0000.0001) %MON dynstat_theta_max            =   1.2000000000000E+00
(PID.TID 0000.0001) %MON dynstat_theta_min            =  -1.0000000000000E+00
(PID.TID 0000.0001) %MON dynstat_theta_mean           =   5.6830700138188E-01
(PID.TID 0000.0001) %MON dynstat_theta_sd             =   8.6815583583815E-01
(PID.TID 0000.0001) %MON dynstat_theta_del2           =   5.5805901113548E-06
(PID.TID 0000.0001) %MON dynstat_salt_max             =   3.4700000000000E+01
(PID.TID 0000.0001) %MON dynstat_salt_min             =   3.4000000000000E+01
(PID.TID 0000.0001) %MON dynstat_salt_mean            =   3.4498936863668E+01
(PID.TID 0000.0001) %MON dynstat_salt_sd              =   2.7620336118783E-01
(PID.TID 0000.0001) %MON dynstat_salt_del2            =   2.2112627431763E-06
(PID.TID 0000.0001) %MON advcfl_uvel_max              =   5.5417080855762E-03
(PID.TID 0000.0001) %MON advcfl_vvel_max              =   3.6230217606582E-03
(PID.TID 0000.0001) %MON advcfl_wvel_max              =   9.9471786958826E-03
(PID.TID 0000.0001) %MON advcfl_W_hf_max              =   9.9471786958826E-03
(PID.TID 0000.0001) %MON pe_b_mean                    =  -8.2966860527765E-01
(PID.TID 0000.0001) %MON ke_max                       =   1.2767956255197E-03
(PID.TID 0000.0001) %MON ke_mean                      =   1.6193271748121E-06
(PID.TID 0000.0001) %MON ke_vol                       =   4.2724659531871E+12
(PID.TID 0000.0001) // =======================================================
(PID.TID 0000.0001) // End MONITOR dynamic field statistics
(PID.TID 0000.0001) // =======================================================
(PID.TID 0000.0001) // =======================================================
(PID.TID 0000.0001) // Begin OBCS MONITOR field statistics
(PID.TID 0000.0001) // =======================================================
(PID.TID 0000.0001) %MON obc_N_vVel_max               =   1.4855734454194E-05
(PID.TID 0000.0001) %MON obc_N_vVel_min               =   1.4855734454194E-05
(PID.TID 0000.0001) %MON obc_N_vVel_mean              =   1.4855734454194E-05
(PID.TID 0000.0001) %MON obc_N_vVel_sd                =   3.8787043443408E-12
(PID.TID 0000.0001) %MON obc_N_vVel_Int               =   9.8047847397677E+02
(PID.TID 0000.0001) // =======================================================
(PID.TID 0000.0001) // End OBCS MONITOR field statistics
(PID.TID 0000.0001) // =======================================================
 cg2d: Sum(rhs),rhsMax =   4.50786623655911E+00  2.99962192343843E+02
(PID.TID 0000.0001)      cg2d_init_res =   1.05439433889521E-05
(PID.TID 0000.0001)      cg2d_iters(min,last) =      -1      84
(PID.TID 0000.0001)      cg2d_last_res =   9.57371305702844E-12
(PID.TID 0000.0001) // =======================================================
(PID.TID 0000.0001) // Begin MONITOR dynamic field statistics
(PID.TID 0000.0001) // =======================================================
(PID.TID 0000.0001) %MON time_tsnumber                =                  1420
(PID.TID 0000.0001) %MON time_secondsf                =   1.4200000000000E+05
(PID.TID 0000.0001) %MON dynstat_eta_max              =   5.8006320547907E+00
(PID.TID 0000.0001) %MON dynstat_eta_min              =  -1.4192378707111E+01
(PID.TID 0000.0001) %MON dynstat_eta_mean             =  -2.5040545168723E+00
(PID.TID 0000.0001) %MON dynstat_eta_sd               =   4.9500802801030E+00
(PID.TID 0000.0001) %MON dynstat_eta_del2             =   2.0716644730249E-01
(PID.TID 0000.0001) %MON dynstat_uvel_max             =   1.2221504547258E-02
(PID.TID 0000.0001) %MON dynstat_uvel_min             =  -5.5532014306641E-02
(PID.TID 0000.0001) %MON dynstat_uvel_mean            =  -1.0641978083854E-07
(PID.TID 0000.0001) %MON dynstat_uvel_sd              =   1.6054336413910E-03
(PID.TID 0000.0001) %MON dynstat_uvel_del2            =   2.4347122184780E-06
(PID.TID 0000.0001) %MON dynstat_vvel_max             =   3.6279526599735E-02
(PID.TID 0000.0001) %MON dynstat_vvel_min             =  -1.8940312247082E-02
(PID.TID 0000.0001) %MON dynstat_vvel_mean            =   1.5136387067643E-05
(PID.TID 0000.0001) %MON dynstat_vvel_sd              =   8.5205404747937E-04
(PID.TID 0000.0001) %MON dynstat_vvel_del2            =   1.7645237812075E-06
(PID.TID 0000.0001) %MON dynstat_wvel_max             =   1.9926031456433E-03
(PID.TID 0000.0001) %MON dynstat_wvel_min             =  -1.9310736406545E-03
(PID.TID 0000.0001) %MON dynstat_wvel_mean            =   7.1557981653421E-09
(PID.TID 0000.0001) %MON dynstat_wvel_sd              =   3.2138276251179E-05
(PID.TID 0000.0001) %MON dynstat_wvel_del2            =   1.2884011991118E-07
(PID.TID 0000.0001) %MON dynstat_theta_max            =   1.2000000000000E+00
(PID.TID 0000.0001) %MON dynstat_theta_min            =  -1.0000000000000E+00
(PID.TID 0000.0001) %MON dynstat_theta_mean           =   5.6830540033144E-01
(PID.TID 0000.0001) %MON dynstat_theta_sd             =   8.6815500048123E-01
(PID.TID 0000.0001) %MON dynstat_theta_del2           =   5.5910992124395E-06
(PID.TID 0000.0001) %MON dynstat_salt_max             =   3.4700000000000E+01
(PID.TID 0000.0001) %MON dynstat_salt_min             =   3.4000000000000E+01
(PID.TID 0000.0001) %MON dynstat_salt_mean            =   3.4498936222903E+01
(PID.TID 0000.0001) %MON dynstat_salt_sd              =   2.7620304168151E-01
(PID.TID 0000.0001) %MON dynstat_salt_del2            =   2.2154437600531E-06
(PID.TID 0000.0001) %MON advcfl_uvel_max              =   5.5532014306641E-03
(PID.TID 0000.0001) %MON advcfl_vvel_max              =   3.6279526599735E-03
(PID.TID 0000.0001) %MON advcfl_wvel_max              =   9.9630157282164E-03
(PID.TID 0000.0001) %MON advcfl_W_hf_max              =   9.9630157282164E-03
(PID.TID 0000.0001) %MON pe_b_mean                    =  -8.2966880757493E-01
(PID.TID 0000.0001) %MON ke_max                       =   1.2826182196354E-03
(PID.TID 0000.0001) %MON ke_mean                      =   1.6262572888276E-06
(PID.TID 0000.0001) %MON ke_vol                       =   4.2724659345823E+12
(PID.TID 0000.0001) // =======================================================
(PID.TID 0000.0001) // End MONITOR dynamic field statistics
(PID.TID 0000.0001) // =======================================================
(PID.TID 0000.0001) // =======================================================
(PID.TID 0000.0001) // Begin OBCS MONITOR field statistics
(PID.TID 0000.0001) // =======================================================
(PID.TID 0000.0001) %MON obc_N_vVel_max               =   1.4847697757737E-05
(PID.TID 0000.0001) %MON obc_N_vVel_min               =   1.4847697757737E-05
(PID.TID 0000.0001) %MON obc_N_vVel_mean              =   1.4847697757737E-05
(PID.TID 0000.0001) %MON obc_N_vVel_sd                =   3.9903918092896E-12
(PID.TID 0000.0001) %MON obc_N_vVel_Int               =   9.7994805201062E+02
(PID.TID 0000.0001) // =======================================================
(PID.TID 0000.0001) // End OBCS MONITOR field statistics
(PID.TID 0000.0001) // =======================================================
 cg2d: Sum(rhs),rhsMax =   4.50787063332149E+00  2.99962267388929E+02
(PID.TID 0000.0001)      cg2d_init_res =   1.05586586965265E-05
(PID.TID 0000.0001)      cg2d_iters(min,last) =      -1      84
(PID.TID 0000.0001)      cg2d_last_res =   9.58913938753400E-12
(PID.TID 0000.0001) // =======================================================
(PID.TID 0000.0001) // Begin MONITOR dynamic field statistics
(PID.TID 0000.0001) // =======================================================
(PID.TID 0000.0001) %MON time_tsnumber                =                  1421
(PID.TID 0000.0001) %MON time_secondsf                =   1.4210000000000E+05
(PID.TID 0000.0001) %MON dynstat_eta_max              =   5.8006606517855E+00
(PID.TID 0000.0001) %MON dynstat_eta_min              =  -1.4192408390099E+01
(PID.TID 0000.0001) %MON dynstat_eta_mean             =  -2.5040575856798E+00
(PID.TID 0000.0001) %MON dynstat_eta_sd               =   4.9500818640837E+00
(PID.TID 0000.0001) %MON dynstat_eta_del2             =   2.0716650063302E-01
(PID.TID 0000.0001) %MON dynstat_uvel_max             =   1.2249304068476E-02
(PID.TID 0000.0001) %MON dynstat_uvel_min             =  -5.5647045646139E-02
(PID.TID 0000.0001) %MON dynstat_uvel_mean            =  -1.0646854557591E-07
(PID.TID 0000.0001) %MON dynstat_uvel_sd              =   1.6089592565717E-03
(PID.TID 0000.0001) %MON dynstat_uvel_del2            =   2.4406227887537E-06
(PID.TID 0000.0001) %MON dynstat_vvel_max             =   3.6328808792441E-02
(PID.TID 0000.0001) %MON dynstat_vvel_min             =  -1.8985979114671E-02
(PID.TID 0000.0001) %MON dynstat_vvel_mean            =   1.5129845453257E-05
(PID.TID 0000.0001) %MON dynstat_vvel_sd              =   8.5369896507302E-04
(PID.TID 0000.0001) %MON dynstat_vvel_del2            =   1.7679762360846E-06
(PID.TID 0000.0001) %MON dynstat_wvel_max             =   1.9957696627187E-03
(PID.TID 0000.0001) %MON dynstat_wvel_min             =  -1.9343146176284E-03
(PID.TID 0000.0001) %MON dynstat_wvel_mean            =   7.1606833305364E-09
(PID.TID 0000.0001) %MON dynstat_wvel_sd              =   3.2183902147774E-05
(PID.TID 0000.0001) %MON dynstat_wvel_del2            =   1.2902292968519E-07
(PID.TID 0000.0001) %MON dynstat_theta_max            =   1.2000000000000E+00
(PID.TID 0000.0001) %MON dynstat_theta_min            =  -1.0000000000000E+00
(PID.TID 0000.0001) %MON dynstat_theta_mean           =   5.6830379652841E-01
(PID.TID 0000.0001) %MON dynstat_theta_sd             =   8.6815416383216E-01
(PID.TID 0000.0001) %MON dynstat_theta_del2           =   5.6016281510237E-06
(PID.TID 0000.0001) %MON dynstat_salt_max             =   3.4700000000000E+01
(PID.TID 0000.0001) %MON dynstat_salt_min             =   3.4000000000000E+01
(PID.TID 0000.0001) %MON dynstat_salt_mean            =   3.4498935581031E+01
(PID.TID 0000.0001) %MON dynstat_salt_sd              =   2.7620272169891E-01
(PID.TID 0000.0001) %MON dynstat_salt_del2            =   2.2196320046347E-06
(PID.TID 0000.0001) %MON advcfl_uvel_max              =   5.5647045646139E-03
(PID.TID 0000.0001) %MON advcfl_vvel_max              =   3.6328808792441E-03
(PID.TID 0000.0001) %MON advcfl_wvel_max              =   9.9788483135936E-03
(PID.TID 0000.0001) %MON advcfl_W_hf_max              =   9.9788483135936E-03
(PID.TID 0000.0001) %MON pe_b_mean                    =  -8.2966900013713E-01
(PID.TID 0000.0001) %MON ke_max                       =   1.2884606429044E-03
(PID.TID 0000.0001) %MON ke_mean                      =   1.6332140769559E-06
(PID.TID 0000.0001) %MON ke_vol                       =   4.2724659161698E+12
(PID.TID 0000.0001) // =======================================================
(PID.TID 0000.0001) // End MONITOR dynamic field statistics
(PID.TID 0000.0001) // =======================================================
(PID.TID 0000.0001) // =======================================================
(PID.TID 0000.0001) // Begin OBCS MONITOR field statistics
(PID.TID 0000.0001) // =======================================================
(PID.TID 0000.0001) %MON obc_N_vVel_max               =   1.4840973697702E-05
(PID.TID 0000.0001) %MON obc_N_vVel_min               =   1.4840973697701E-05
(PID.TID 0000.0001) %MON obc_N_vVel_mean              =   1.4840973697702E-05
(PID.TID 0000.0001) %MON obc_N_vVel_sd                =   1.9625391020818E-12
(PID.TID 0000.0001) %MON obc_N_vVel_Int               =   9.7950426404830E+02
(PID.TID 0000.0001) // =======================================================
(PID.TID 0000.0001) // End OBCS MONITOR field statistics
(PID.TID 0000.0001) // =======================================================
 cg2d: Sum(rhs),rhsMax =   4.50787497601437E+00  2.99962342512325E+02
(PID.TID 0000.0001)      cg2d_init_res =   1.05740141397433E-05
(PID.TID 0000.0001)      cg2d_iters(min,last) =      -1      84
(PID.TID 0000.0001)      cg2d_last_res =   9.60522204521090E-12
(PID.TID 0000.0001) // =======================================================
(PID.TID 0000.0001) // Begin MONITOR dynamic field statistics
(PID.TID 0000.0001) // =======================================================
(PID.TID 0000.0001) %MON time_tsnumber                =                  1422
(PID.TID 0000.0001) %MON time_secondsf                =   1.4220000000000E+05
(PID.TID 0000.0001) %MON dynstat_eta_max              =   5.8006893571358E+00
(PID.TID 0000.0001) %MON dynstat_eta_min              =  -1.4192438074627E+01
(PID.TID 0000.0001) %MON dynstat_eta_mean             =  -2.5040606251073E+00
(PID.TID 0000.0001) %MON dynstat_eta_sd               =   4.9500834407168E+00
(PID.TID 0000.0001) %MON dynstat_eta_del2             =   2.0716655404186E-01
(PID.TID 0000.0001) %MON dynstat_uvel_max             =   1.2277147149174E-02
(PID.TID 0000.0001) %MON dynstat_uvel_min             =  -5.5762174161475E-02
(PID.TID 0000.0001) %MON dynstat_uvel_mean            =  -1.0652394896280E-07
(PID.TID 0000.0001) %MON dynstat_uvel_sd              =   1.6124912674717E-03
(PID.TID 0000.0001) %MON dynstat_uvel_del2            =   2.4465476160629E-06
(PID.TID 0000.0001) %MON dynstat_vvel_max             =   3.6378063989799E-02
(PID.TID 0000.0001) %MON dynstat_vvel_min             =  -1.9031734431186E-02
(PID.TID 0000.0001) %MON dynstat_vvel_mean            =   1.5125046482120E-05
(PID.TID 0000.0001) %MON dynstat_vvel_sd              =   8.5534604984013E-04
(PID.TID 0000.0001) %MON dynstat_vvel_del2            =   1.7714337597703E-06
(PID.TID 0000.0001) %MON dynstat_wvel_max             =   1.9989352687299E-03
(PID.TID 0000.0001) %MON dynstat_wvel_min             =  -1.9375564501839E-03
(PID.TID 0000.0001) %MON dynstat_wvel_mean            =   7.1686624723843E-09
(PID.TID 0000.0001) %MON dynstat_wvel_sd              =   3.2227400375988E-05
(PID.TID 0000.0001) %MON dynstat_wvel_del2            =   1.2920066626916E-07
(PID.TID 0000.0001) %MON dynstat_theta_max            =   1.2000000000000E+00
(PID.TID 0000.0001) %MON dynstat_theta_min            =  -1.0000000000000E+00
(PID.TID 0000.0001) %MON dynstat_theta_mean           =   5.6830218997094E-01
(PID.TID 0000.0001) %MON dynstat_theta_sd             =   8.6815332588894E-01
(PID.TID 0000.0001) %MON dynstat_theta_del2           =   5.6121762860715E-06
(PID.TID 0000.0001) %MON dynstat_salt_max             =   3.4700000000000E+01
(PID.TID 0000.0001) %MON dynstat_salt_min             =   3.4000000000000E+01
(PID.TID 0000.0001) %MON dynstat_salt_mean            =   3.4498934938052E+01
(PID.TID 0000.0001) %MON dynstat_salt_sd              =   2.7620240123953E-01
(PID.TID 0000.0001) %MON dynstat_salt_del2            =   2.2238272958752E-06
(PID.TID 0000.0001) %MON advcfl_uvel_max              =   5.5762174161475E-03
(PID.TID 0000.0001) %MON advcfl_vvel_max              =   3.6378063989799E-03
(PID.TID 0000.0001) %MON advcfl_wvel_max              =   9.9946763436493E-03
(PID.TID 0000.0001) %MON advcfl_W_hf_max              =   9.9946763436493E-03
(PID.TID 0000.0001) %MON pe_b_mean                    =  -8.2966918340065E-01
(PID.TID 0000.0001) %MON ke_max                       =   1.2943229213727E-03
(PID.TID 0000.0001) %MON ke_mean                      =   1.6401977427666E-06
(PID.TID 0000.0001) %MON ke_vol                       =   4.2724658979411E+12
(PID.TID 0000.0001) // =======================================================
(PID.TID 0000.0001) // End MONITOR dynamic field statistics
(PID.TID 0000.0001) // =======================================================
(PID.TID 0000.0001) // =======================================================
(PID.TID 0000.0001) // Begin OBCS MONITOR field statistics
(PID.TID 0000.0001) // =======================================================
(PID.TID 0000.0001) %MON obc_N_vVel_max               =   1.4835692268749E-05
(PID.TID 0000.0001) %MON obc_N_vVel_min               =   1.4835692268749E-05
(PID.TID 0000.0001) %MON obc_N_vVel_mean              =   1.4835692268749E-05
(PID.TID 0000.0001) %MON obc_N_vVel_sd                =  -4.3168488217611E-24
(PID.TID 0000.0001) %MON obc_N_vVel_Int               =   9.7915568973745E+02
(PID.TID 0000.0001) // =======================================================
(PID.TID 0000.0001) // End OBCS MONITOR field statistics
(PID.TID 0000.0001) // =======================================================
 cg2d: Sum(rhs),rhsMax =   4.50787926737813E+00  2.99962417732700E+02
(PID.TID 0000.0001)      cg2d_init_res =   1.05900051188967E-05
(PID.TID 0000.0001)      cg2d_iters(min,last) =      -1      84
(PID.TID 0000.0001)      cg2d_last_res =   9.62184050553353E-12
(PID.TID 0000.0001) // =======================================================
(PID.TID 0000.0001) // Begin MONITOR dynamic field statistics
(PID.TID 0000.0001) // =======================================================
(PID.TID 0000.0001) %MON time_tsnumber                =                  1423
(PID.TID 0000.0001) %MON time_secondsf                =   1.4230000000000E+05
(PID.TID 0000.0001) %MON dynstat_eta_max              =   5.8007181673841E+00
(PID.TID 0000.0001) %MON dynstat_eta_min              =  -1.4192467762459E+01
(PID.TID 0000.0001) %MON dynstat_eta_mean             =  -2.5040636368331E+00
(PID.TID 0000.0001) %MON dynstat_eta_sd               =   4.9500850106198E+00
(PID.TID 0000.0001) %MON dynstat_eta_del2             =   2.0716660752952E-01
(PID.TID 0000.0001) %MON dynstat_uvel_max             =   1.2305033833623E-02
(PID.TID 0000.0001) %MON dynstat_uvel_min             =  -5.5877399130143E-02
(PID.TID 0000.0001) %MON dynstat_uvel_mean            =  -1.0658417710808E-07
(PID.TID 0000.0001) %MON dynstat_uvel_sd              =   1.6160296747640E-03
(PID.TID 0000.0001) %MON dynstat_uvel_del2            =   2.4524867215507E-06
(PID.TID 0000.0001) %MON dynstat_vvel_max             =   3.6427291989562E-02
(PID.TID 0000.0001) %MON dynstat_vvel_min             =  -1.9077578142745E-02
(PID.TID 0000.0001) %MON dynstat_vvel_mean            =   1.5122080889989E-05
(PID.TID 0000.0001) %MON dynstat_vvel_sd              =   8.5699546912139E-04
(PID.TID 0000.0001) %MON dynstat_vvel_del2            =   1.7748968545231E-06
(PID.TID 0000.0001) %MON dynstat_wvel_max             =   2.0020999420417E-03
(PID.TID 0000.0001) %MON dynstat_wvel_min             =  -1.9407991261140E-03
(PID.TID 0000.0001) %MON dynstat_wvel_mean            =   7.1795694512794E-09
(PID.TID 0000.0001) %MON dynstat_wvel_sd              =   3.2269321053840E-05
(PID.TID 0000.0001) %MON dynstat_wvel_del2            =   1.2937514546957E-07
(PID.TID 0000.0001) %MON dynstat_theta_max            =   1.2000000000000E+00
(PID.TID 0000.0001) %MON dynstat_theta_min            =  -1.0000000000000E+00
(PID.TID 0000.0001) %MON dynstat_theta_mean           =   5.6830058065706E-01
(PID.TID 0000.0001) %MON dynstat_theta_sd             =   8.6815248664952E-01
(PID.TID 0000.0001) %MON dynstat_theta_del2           =   5.6227429684560E-06
(PID.TID 0000.0001) %MON dynstat_salt_max             =   3.4700000000000E+01
(PID.TID 0000.0001) %MON dynstat_salt_min             =   3.4000000000000E+01
(PID.TID 0000.0001) %MON dynstat_salt_mean            =   3.4498934293964E+01
(PID.TID 0000.0001) %MON dynstat_salt_sd              =   2.7620208030254E-01
(PID.TID 0000.0001) %MON dynstat_salt_del2            =   2.2280294513958E-06
(PID.TID 0000.0001) %MON advcfl_uvel_max              =   5.5877399130143E-03
(PID.TID 0000.0001) %MON advcfl_vvel_max              =   3.6427291989562E-03
(PID.TID 0000.0001) %MON advcfl_wvel_max              =   1.0010499710208E-02
(PID.TID 0000.0001) %MON advcfl_W_hf_max              =   1.0010499710208E-02
(PID.TID 0000.0001) %MON pe_b_mean                    =  -8.2966935782227E-01
(PID.TID 0000.0001) %MON ke_max                       =   1.3002050807958E-03
(PID.TID 0000.0001) %MON ke_mean                      =   1.6472085091933E-06
(PID.TID 0000.0001) %MON ke_vol                       =   4.2724658798869E+12
(PID.TID 0000.0001) // =======================================================
(PID.TID 0000.0001) // End MONITOR dynamic field statistics
(PID.TID 0000.0001) // =======================================================
(PID.TID 0000.0001) // =======================================================
(PID.TID 0000.0001) // Begin OBCS MONITOR field statistics
(PID.TID 0000.0001) // =======================================================
(PID.TID 0000.0001) %MON obc_N_vVel_max               =   1.4831954315767E-05
(PID.TID 0000.0001) %MON obc_N_vVel_min               =   1.4831954315767E-05
(PID.TID 0000.0001) %MON obc_N_vVel_mean              =   1.4831954315767E-05
(PID.TID 0000.0001) %MON obc_N_vVel_sd                =  -8.9180409790873E-24
(PID.TID 0000.0001) %MON obc_N_vVel_Int               =   9.7890898484061E+02
(PID.TID 0000.0001) // =======================================================
(PID.TID 0000.0001) // End OBCS MONITOR field statistics
(PID.TID 0000.0001) // =======================================================
 cg2d: Sum(rhs),rhsMax =   4.50788351032071E+00  2.99962493066641E+02
(PID.TID 0000.0001)      cg2d_init_res =   1.06065788098892E-05
(PID.TID 0000.0001)      cg2d_iters(min,last) =      -1      84
(PID.TID 0000.0001)      cg2d_last_res =   9.63881797112246E-12
(PID.TID 0000.0001) // =======================================================
(PID.TID 0000.0001) // Begin MONITOR dynamic field statistics
(PID.TID 0000.0001) // =======================================================
(PID.TID 0000.0001) %MON time_tsnumber                =                  1424
(PID.TID 0000.0001) %MON time_secondsf                =   1.4240000000000E+05
(PID.TID 0000.0001) %MON dynstat_eta_max              =   5.8007470789914E+00
(PID.TID 0000.0001) %MON dynstat_eta_min              =  -1.4192497455359E+01
(PID.TID 0000.0001) %MON dynstat_eta_mean             =  -2.5040666226107E+00
(PID.TID 0000.0001) %MON dynstat_eta_sd               =   4.9500865744034E+00
(PID.TID 0000.0001) %MON dynstat_eta_del2             =   2.0716666109640E-01
(PID.TID 0000.0001) %MON dynstat_uvel_max             =   1.2332964168596E-02
(PID.TID 0000.0001) %MON dynstat_uvel_min             =  -5.5992719819181E-02
(PID.TID 0000.0001) %MON dynstat_uvel_mean            =  -1.0664733348009E-07
(PID.TID 0000.0001) %MON dynstat_uvel_sd              =   1.6195744787197E-03
(PID.TID 0000.0001) %MON dynstat_uvel_del2            =   2.4584401256980E-06
(PID.TID 0000.0001) %MON dynstat_vvel_max             =   3.6476492581727E-02
(PID.TID 0000.0001) %MON dynstat_vvel_min             =  -1.9123510199680E-02
(PID.TID 0000.0001) %MON dynstat_vvel_mean            =   1.5121001240074E-05
(PID.TID 0000.0001) %MON dynstat_vvel_sd              =   8.5864740685582E-04
(PID.TID 0000.0001) %MON dynstat_vvel_del2            =   1.7783659839790E-06
(PID.TID 0000.0001) %MON dynstat_wvel_max             =   2.0052636610742E-03
(PID.TID 0000.0001) %MON dynstat_wvel_min             =  -1.9440426326535E-03
(PID.TID 0000.0001) %MON dynstat_wvel_mean            =   7.1931819001433E-09
(PID.TID 0000.0001) %MON dynstat_wvel_sd              =   3.2310237504592E-05
(PID.TID 0000.0001) %MON dynstat_wvel_del2            =   1.2954809193321E-07
(PID.TID 0000.0001) %MON dynstat_theta_max            =   1.2000000000000E+00
(PID.TID 0000.0001) %MON dynstat_theta_min            =  -1.0000000000000E+00
(PID.TID 0000.0001) %MON dynstat_theta_mean           =   5.6829896858450E-01
(PID.TID 0000.0001) %MON dynstat_theta_sd             =   8.6815164611254E-01
(PID.TID 0000.0001) %MON dynstat_theta_del2           =   5.6333284154335E-06
(PID.TID 0000.0001) %MON dynstat_salt_max             =   3.4700000000000E+01
(PID.TID 0000.0001) %MON dynstat_salt_min             =   3.4000000000000E+01
(PID.TID 0000.0001) %MON dynstat_salt_mean            =   3.4498933648767E+01
(PID.TID 0000.0001) %MON dynstat_salt_sd              =   2.7620175888803E-01
(PID.TID 0000.0001) %MON dynstat_salt_del2            =   2.2322387458580E-06
(PID.TID 0000.0001) %MON advcfl_uvel_max              =   5.5992719819181E-03
(PID.TID 0000.0001) %MON advcfl_vvel_max              =   3.6476492581727E-03
(PID.TID 0000.0001) %MON advcfl_wvel_max              =   1.0026318305371E-02
(PID.TID 0000.0001) %MON advcfl_W_hf_max              =   1.0026318305371E-02
(PID.TID 0000.0001) %MON pe_b_mean                    =  -8.2966952386925E-01
(PID.TID 0000.0001) %MON ke_max                       =   1.3061071466138E-03
(PID.TID 0000.0001) %MON ke_mean                      =   1.6542466134664E-06
(PID.TID 0000.0001) %MON ke_vol                       =   4.2724658619972E+12
(PID.TID 0000.0001) // =======================================================
(PID.TID 0000.0001) // End MONITOR dynamic field statistics
(PID.TID 0000.0001) // =======================================================
(PID.TID 0000.0001) // =======================================================
(PID.TID 0000.0001) // Begin OBCS MONITOR field statistics
(PID.TID 0000.0001) // =======================================================
(PID.TID 0000.0001) %MON obc_N_vVel_max               =   1.4829828095932E-05
(PID.TID 0000.0001) %MON obc_N_vVel_min               =   1.4829828095932E-05
(PID.TID 0000.0001) %MON obc_N_vVel_mean              =   1.4829828095932E-05
(PID.TID 0000.0001) %MON obc_N_vVel_sd                =  -2.5849394142282E-24
(PID.TID 0000.0001) %MON obc_N_vVel_Int               =   9.7876865433153E+02
(PID.TID 0000.0001) // =======================================================
(PID.TID 0000.0001) // End OBCS MONITOR field statistics
(PID.TID 0000.0001) // =======================================================
 cg2d: Sum(rhs),rhsMax =   4.50788770785553E+00  2.99962568528394E+02
(PID.TID 0000.0001)      cg2d_init_res =   1.06236818942508E-05
(PID.TID 0000.0001)      cg2d_iters(min,last) =      -1      84
(PID.TID 0000.0001)      cg2d_last_res =   9.65598275972564E-12
(PID.TID 0000.0001) // =======================================================
(PID.TID 0000.0001) // Begin MONITOR dynamic field statistics
(PID.TID 0000.0001) // =======================================================
(PID.TID 0000.0001) %MON time_tsnumber                =                  1425
(PID.TID 0000.0001) %MON time_secondsf                =   1.4250000000000E+05
(PID.TID 0000.0001) %MON dynstat_eta_max              =   5.8007760884194E+00
(PID.TID 0000.0001) %MON dynstat_eta_min              =  -1.4192527155056E+01
(PID.TID 0000.0001) %MON dynstat_eta_mean             =  -2.5040695842332E+00
(PID.TID 0000.0001) %MON dynstat_eta_sd               =   4.9500881326602E+00
(PID.TID 0000.0001) %MON dynstat_eta_del2             =   2.0716671474285E-01
(PID.TID 0000.0001) %MON dynstat_uvel_max             =   1.2360938202130E-02
(PID.TID 0000.0001) %MON dynstat_uvel_min             =  -5.6108135488018E-02
(PID.TID 0000.0001) %MON dynstat_uvel_mean            =  -1.0671147438419E-07
(PID.TID 0000.0001) %MON dynstat_uvel_sd              =   1.6231256790705E-03
(PID.TID 0000.0001) %MON dynstat_uvel_del2            =   2.4644078448560E-06
(PID.TID 0000.0001) %MON dynstat_vvel_max             =   3.6525665548500E-02
(PID.TID 0000.0001) %MON dynstat_vvel_min             =  -1.9169530557910E-02
(PID.TID 0000.0001) %MON dynstat_vvel_mean            =   1.5121821151781E-05
(PID.TID 0000.0001) %MON dynstat_vvel_sd              =   8.6030205704306E-04
(PID.TID 0000.0001) %MON dynstat_vvel_del2            =   1.7818415450509E-06
(PID.TID 0000.0001) %MON dynstat_wvel_max             =   2.0084264042977E-03
(PID.TID 0000.0001) %MON dynstat_wvel_min             =  -1.9472869563603E-03
(PID.TID 0000.0001) %MON dynstat_wvel_mean            =   7.2092237414301E-09
(PID.TID 0000.0001) %MON dynstat_wvel_sd              =   3.2350721718046E-05
(PID.TID 0000.0001) %MON dynstat_wvel_del2            =   1.2972101122220E-07
(PID.TID 0000.0001) %MON dynstat_theta_max            =   1.2000000000000E+00
(PID.TID 0000.0001) %MON dynstat_theta_min            =  -1.0000000000000E+00
(PID.TID 0000.0001) %MON dynstat_theta_mean           =   5.6829735375085E-01
(PID.TID 0000.0001) %MON dynstat_theta_sd             =   8.6815080427632E-01
(PID.TID 0000.0001) %MON dynstat_theta_del2           =   5.6439315957372E-06
(PID.TID 0000.0001) %MON dynstat_salt_max             =   3.4700000000000E+01
(PID.TID 0000.0001) %MON dynstat_salt_min             =   3.4000000000000E+01
(PID.TID 0000.0001) %MON dynstat_salt_mean            =   3.4498933002459E+01
(PID.TID 0000.0001) %MON dynstat_salt_sd              =   2.7620143699493E-01
(PID.TID 0000.0001) %MON dynstat_salt_del2            =   2.2364546422704E-06
(PID.TID 0000.0001) %MON advcfl_uvel_max              =   5.6108135488018E-03
(PID.TID 0000.0001) %MON advcfl_vvel_max              =   3.6525665548500E-03
(PID.TID 0000.0001) %MON advcfl_wvel_max              =   1.0042132021489E-02
(PID.TID 0000.0001) %MON advcfl_W_hf_max              =   1.0042132021489E-02
(PID.TID 0000.0001) %MON pe_b_mean                    =  -8.2966968200970E-01
(PID.TID 0000.0001) %MON ke_max                       =   1.3120291440959E-03
(PID.TID 0000.0001) %MON ke_mean                      =   1.6613123013951E-06
(PID.TID 0000.0001) %MON ke_vol                       =   4.2724658442617E+12
(PID.TID 0000.0001) // =======================================================
(PID.TID 0000.0001) // End MONITOR dynamic field statistics
(PID.TID 0000.0001) // =======================================================
(PID.TID 0000.0001) // =======================================================
(PID.TID 0000.0001) // Begin OBCS MONITOR field statistics
(PID.TID 0000.0001) // =======================================================
(PID.TID 0000.0001) %MON obc_N_vVel_max               =   1.4829348368632E-05
(PID.TID 0000.0001) %MON obc_N_vVel_min               =   1.4829348368631E-05
(PID.TID 0000.0001) %MON obc_N_vVel_mean              =   1.4829348368631E-05
(PID.TID 0000.0001) %MON obc_N_vVel_sd                =   4.6874284016868E-12
(PID.TID 0000.0001) %MON obc_N_vVel_Int               =   9.7873699232964E+02
(PID.TID 0000.0001) // =======================================================
(PID.TID 0000.0001) // End OBCS MONITOR field statistics
(PID.TID 0000.0001) // =======================================================
 cg2d: Sum(rhs),rhsMax =   4.50789186303893E+00  2.99962644129468E+02
(PID.TID 0000.0001)      cg2d_init_res =   1.06412470634603E-05
(PID.TID 0000.0001)      cg2d_iters(min,last) =      -1      84
(PID.TID 0000.0001)      cg2d_last_res =   9.67316581904791E-12
(PID.TID 0000.0001) // =======================================================
(PID.TID 0000.0001) // Begin MONITOR dynamic field statistics
(PID.TID 0000.0001) // =======================================================
(PID.TID 0000.0001) %MON time_tsnumber                =                  1426
(PID.TID 0000.0001) %MON time_secondsf                =   1.4260000000000E+05
(PID.TID 0000.0001) %MON dynstat_eta_max              =   5.8008051922002E+00
(PID.TID 0000.0001) %MON dynstat_eta_min              =  -1.4192556863207E+01
(PID.TID 0000.0001) %MON dynstat_eta_mean             =  -2.5040725234942E+00
(PID.TID 0000.0001) %MON dynstat_eta_sd               =   4.9500896859521E+00
(PID.TID 0000.0001) %MON dynstat_eta_del2             =   2.0716676846918E-01
(PID.TID 0000.0001) %MON dynstat_uvel_max             =   1.2388955983923E-02
(PID.TID 0000.0001) %MON dynstat_uvel_min             =  -5.6223645385447E-02
(PID.TID 0000.0001) %MON dynstat_uvel_mean            =  -1.0677466512121E-07
(PID.TID 0000.0001) %MON dynstat_uvel_sd              =   1.6266832753677E-03
(PID.TID 0000.0001) %MON dynstat_uvel_del2            =   2.4703898979672E-06
(PID.TID 0000.0001) %MON dynstat_vvel_max             =   3.6574810664103E-02
(PID.TID 0000.0001) %MON dynstat_vvel_min             =  -1.9215639179523E-02
(PID.TID 0000.0001) %MON dynstat_vvel_mean            =   1.5124515399893E-05
(PID.TID 0000.0001) %MON dynstat_vvel_sd              =   8.6195961761159E-04
(PID.TID 0000.0001) %MON dynstat_vvel_del2            =   1.7853238516246E-06
(PID.TID 0000.0001) %MON dynstat_wvel_max             =   2.0115881502147E-03
(PID.TID 0000.0001) %MON dynstat_wvel_min             =  -1.9505320830203E-03
(PID.TID 0000.0001) %MON dynstat_wvel_mean            =   7.2273728100881E-09
(PID.TID 0000.0001) %MON dynstat_wvel_sd              =   3.2391322857357E-05
(PID.TID 0000.0001) %MON dynstat_wvel_del2            =   1.2989509459013E-07
(PID.TID 0000.0001) %MON dynstat_theta_max            =   1.2000000000000E+00
(PID.TID 0000.0001) %MON dynstat_theta_min            =  -1.0000000000000E+00
(PID.TID 0000.0001) %MON dynstat_theta_mean           =   5.6829573615338E-01
(PID.TID 0000.0001) %MON dynstat_theta_sd             =   8.6814996113825E-01
(PID.TID 0000.0001) %MON dynstat_theta_del2           =   5.6545514599687E-06
(PID.TID 0000.0001) %MON dynstat_salt_max             =   3.4700000000000E+01
(PID.TID 0000.0001) %MON dynstat_salt_min             =   3.4000000000000E+01
(PID.TID 0000.0001) %MON dynstat_salt_mean            =   3.4498932355039E+01
(PID.TID 0000.0001) %MON dynstat_salt_sd              =   2.7620111462285E-01
(PID.TID 0000.0001) %MON dynstat_salt_del2            =   2.2406769047611E-06
(PID.TID 0000.0001) %MON advcfl_uvel_max              =   5.6223645385447E-03
(PID.TID 0000.0001) %MON advcfl_vvel_max              =   3.6574810664103E-03
(PID.TID 0000.0001) %MON advcfl_wvel_max              =   1.0057940751074E-02
(PID.TID 0000.0001) %MON advcfl_W_hf_max              =   1.0057940751074E-02
(PID.TID 0000.0001) %MON pe_b_mean                    =  -8.2966983270264E-01
(PID.TID 0000.0001) %MON ke_max                       =   1.3179710981358E-03
(PID.TID 0000.0001) %MON ke_mean                      =   1.6684058227360E-06
(PID.TID 0000.0001) %MON ke_vol                       =   4.2724658266697E+12
(PID.TID 0000.0001) // =======================================================
(PID.TID 0000.0001) // End MONITOR dynamic field statistics
(PID.TID 0000.0001) // =======================================================
(PID.TID 0000.0001) // =======================================================
(PID.TID 0000.0001) // Begin OBCS MONITOR field statistics
(PID.TID 0000.0001) // =======================================================
(PID.TID 0000.0001) %MON obc_N_vVel_max               =   1.4830515998727E-05
(PID.TID 0000.0001) %MON obc_N_vVel_min               =   1.4830515998726E-05
(PID.TID 0000.0001) %MON obc_N_vVel_mean              =   1.4830515998727E-05
(PID.TID 0000.0001) %MON obc_N_vVel_sd                =  -4.6011921573262E-24
(PID.TID 0000.0001) %MON obc_N_vVel_Int               =   9.7881405591597E+02
(PID.TID 0000.0001) // =======================================================
(PID.TID 0000.0001) // End OBCS MONITOR field statistics
(PID.TID 0000.0001) // =======================================================
 cg2d: Sum(rhs),rhsMax =   4.50789597871904E+00  2.99962719890832E+02
(PID.TID 0000.0001)      cg2d_init_res =   1.06591969057322E-05
(PID.TID 0000.0001)      cg2d_iters(min,last) =      -1      84
(PID.TID 0000.0001)      cg2d_last_res =   9.69020190401785E-12
(PID.TID 0000.0001) // =======================================================
(PID.TID 0000.0001) // Begin MONITOR dynamic field statistics
(PID.TID 0000.0001) // =======================================================
(PID.TID 0000.0001) %MON time_tsnumber                =                  1427
(PID.TID 0000.0001) %MON time_secondsf                =   1.4270000000000E+05
(PID.TID 0000.0001) %MON dynstat_eta_max              =   5.8008343870149E+00
(PID.TID 0000.0001) %MON dynstat_eta_min              =  -1.4192586581355E+01
(PID.TID 0000.0001) %MON dynstat_eta_mean             =  -2.5040754421509E+00
(PID.TID 0000.0001) %MON dynstat_eta_sd               =   4.9500912347987E+00
(PID.TID 0000.0001) %MON dynstat_eta_del2             =   2.0716682227566E-01
(PID.TID 0000.0001) %MON dynstat_uvel_max             =   1.2417017567548E-02
(PID.TID 0000.0001) %MON dynstat_uvel_min             =  -5.6339248750548E-02
(PID.TID 0000.0001) %MON dynstat_uvel_mean            =  -1.0683500294919E-07
(PID.TID 0000.0001) %MON dynstat_uvel_sd              =   1.6302472669270E-03
(PID.TID 0000.0001) %MON dynstat_uvel_del2            =   2.4763863037422E-06
(PID.TID 0000.0001) %MON dynstat_vvel_max             =   3.6623927695032E-02
(PID.TID 0000.0001) %MON dynstat_vvel_min             =  -1.9261836032706E-02
(PID.TID 0000.0001) %MON dynstat_vvel_mean            =   1.5129020708015E-05
(PID.TID 0000.0001) %MON dynstat_vvel_sd              =   8.6362028430312E-04
(PID.TID 0000.0001) %MON dynstat_vvel_del2            =   1.7888131226164E-06
(PID.TID 0000.0001) %MON dynstat_wvel_max             =   2.0147488772853E-03
(PID.TID 0000.0001) %MON dynstat_wvel_min             =  -1.9537779978087E-03
(PID.TID 0000.0001) %MON dynstat_wvel_mean            =   7.2472663017660E-09
(PID.TID 0000.0001) %MON dynstat_wvel_sd              =   3.2432549506218E-05
(PID.TID 0000.0001) %MON dynstat_wvel_del2            =   1.3007115754947E-07
(PID.TID 0000.0001) %MON dynstat_theta_max            =   1.2000000000000E+00
(PID.TID 0000.0001) %MON dynstat_theta_min            =  -1.0000000000000E+00
(PID.TID 0000.0001) %MON dynstat_theta_mean           =   5.6829411578909E-01
(PID.TID 0000.0001) %MON dynstat_theta_sd             =   8.6814911669596E-01
(PID.TID 0000.0001) %MON dynstat_theta_del2           =   5.6651874774580E-06
(PID.TID 0000.0001) %MON dynstat_salt_max             =   3.4700000000000E+01
(PID.TID 0000.0001) %MON dynstat_salt_min             =   3.4000000000000E+01
(PID.TID 0000.0001) %MON dynstat_salt_mean            =   3.4498931706506E+01
(PID.TID 0000.0001) %MON dynstat_salt_sd              =   2.7620079177101E-01
(PID.TID 0000.0001) %MON dynstat_salt_del2            =   2.2449053919986E-06
(PID.TID 0000.0001) %MON advcfl_uvel_max              =   5.6339248750548E-03
(PID.TID 0000.0001) %MON advcfl_vvel_max              =   3.6623927695032E-03
(PID.TID 0000.0001) %MON advcfl_wvel_max              =   1.0073744386427E-02
(PID.TID 0000.0001) %MON advcfl_W_hf_max              =   1.0073744386427E-02
(PID.TID 0000.0001) %MON pe_b_mean                    =  -8.2966997638843E-01
(PID.TID 0000.0001) %MON ke_max                       =   1.3239330333292E-03
(PID.TID 0000.0001) %MON ke_mean                      =   1.6755274258703E-06
(PID.TID 0000.0001) %MON ke_vol                       =   4.2724658092104E+12
(PID.TID 0000.0001) // =======================================================
(PID.TID 0000.0001) // End MONITOR dynamic field statistics
(PID.TID 0000.0001) // =======================================================
(PID.TID 0000.0001) // =======================================================
(PID.TID 0000.0001) // Begin OBCS MONITOR field statistics
(PID.TID 0000.0001) // =======================================================
(PID.TID 0000.0001) %MON obc_N_vVel_max               =   1.4833298219495E-05
(PID.TID 0000.0001) %MON obc_N_vVel_min               =   1.4833298219495E-05
(PID.TID 0000.0001) %MON obc_N_vVel_mean              =   1.4833298219495E-05
(PID.TID 0000.0001) %MON obc_N_vVel_sd                =   2.1450389640578E-12
(PID.TID 0000.0001) %MON obc_N_vVel_Int               =   9.7899768248667E+02
(PID.TID 0000.0001) // =======================================================
(PID.TID 0000.0001) // End OBCS MONITOR field statistics
(PID.TID 0000.0001) // =======================================================
 cg2d: Sum(rhs),rhsMax =   4.50790005775935E+00  2.99962795823733E+02
(PID.TID 0000.0001)      cg2d_init_res =   1.06774418240715E-05
(PID.TID 0000.0001)      cg2d_iters(min,last) =      -1      84
(PID.TID 0000.0001)      cg2d_last_res =   9.70692842476626E-12
(PID.TID 0000.0001) // =======================================================
(PID.TID 0000.0001) // Begin MONITOR dynamic field statistics
(PID.TID 0000.0001) // =======================================================
(PID.TID 0000.0001) %MON time_tsnumber                =                  1428
(PID.TID 0000.0001) %MON time_secondsf                =   1.4280000000000E+05
(PID.TID 0000.0001) %MON dynstat_eta_max              =   5.8008636697576E+00
(PID.TID 0000.0001) %MON dynstat_eta_min              =  -1.4192616310904E+01
(PID.TID 0000.0001) %MON dynstat_eta_mean             =  -2.5040783418879E+00
(PID.TID 0000.0001) %MON dynstat_eta_sd               =   4.9500927796671E+00
(PID.TID 0000.0001) %MON dynstat_eta_del2             =   2.0716687616251E-01
(PID.TID 0000.0001) %MON dynstat_uvel_max             =   1.2445123009847E-02
(PID.TID 0000.0001) %MON dynstat_uvel_min             =  -5.6454944813420E-02
(PID.TID 0000.0001) %MON dynstat_uvel_mean            =  -1.0689066217207E-07
(PID.TID 0000.0001) %MON dynstat_uvel_sd              =   1.6338176528742E-03
(PID.TID 0000.0001) %MON dynstat_uvel_del2            =   2.4823970805765E-06
(PID.TID 0000.0001) %MON dynstat_vvel_max             =   3.6673016400413E-02
(PID.TID 0000.0001) %MON dynstat_vvel_min             =  -1.9308121091573E-02
(PID.TID 0000.0001) %MON dynstat_vvel_mean            =   1.5135237349622E-05
(PID.TID 0000.0001) %MON dynstat_vvel_sd              =   8.6528424516693E-04
(PID.TID 0000.0001) %MON dynstat_vvel_del2            =   1.7923094801055E-06
(PID.TID 0000.0001) %MON dynstat_wvel_max             =   2.0179085640114E-03
(PID.TID 0000.0001) %MON dynstat_wvel_min             =  -1.9570246852583E-03
(PID.TID 0000.0001) %MON dynstat_wvel_mean            =   7.2685084138985E-09
(PID.TID 0000.0001) %MON dynstat_wvel_sd              =   3.2474856584167E-05
(PID.TID 0000.0001) %MON dynstat_wvel_del2            =   1.3024961937017E-07
(PID.TID 0000.0001) %MON dynstat_theta_max            =   1.2000000000000E+00
(PID.TID 0000.0001) %MON dynstat_theta_min            =  -1.0000000000000E+00
(PID.TID 0000.0001) %MON dynstat_theta_mean           =   5.6829249265471E-01
(PID.TID 0000.0001) %MON dynstat_theta_sd             =   8.6814827094759E-01
(PID.TID 0000.0001) %MON dynstat_theta_del2           =   5.6758391937960E-06
(PID.TID 0000.0001) %MON dynstat_salt_max             =   3.4700000000000E+01
(PID.TID 0000.0001) %MON dynstat_salt_min             =   3.4000000000000E+01
(PID.TID 0000.0001) %MON dynstat_salt_mean            =   3.4498931056858E+01
(PID.TID 0000.0001) %MON dynstat_salt_sd              =   2.7620046843878E-01
(PID.TID 0000.0001) %MON dynstat_salt_del2            =   2.2491399854079E-06
(PID.TID 0000.0001) %MON advcfl_uvel_max              =   5.6454944813420E-03
(PID.TID 0000.0001) %MON advcfl_vvel_max              =   3.6673016400413E-03
(PID.TID 0000.0001) %MON advcfl_wvel_max              =   1.0089542820057E-02
(PID.TID 0000.0001) %MON advcfl_W_hf_max              =   1.0089542820057E-02
(PID.TID 0000.0001) %MON pe_b_mean                    =  -8.2967011347965E-01
(PID.TID 0000.0001) %MON ke_max                       =   1.3299149740323E-03
(PID.TID 0000.0001) %MON ke_mean                      =   1.6826773531196E-06
(PID.TID 0000.0001) %MON ke_vol                       =   4.2724657918736E+12
(PID.TID 0000.0001) // =======================================================
(PID.TID 0000.0001) // End MONITOR dynamic field statistics
(PID.TID 0000.0001) // =======================================================
(PID.TID 0000.0001) // =======================================================
(PID.TID 0000.0001) // Begin OBCS MONITOR field statistics
(PID.TID 0000.0001) // =======================================================
(PID.TID 0000.0001) %MON obc_N_vVel_max               =   1.4837629608450E-05
(PID.TID 0000.0001) %MON obc_N_vVel_min               =   1.4837629608449E-05
(PID.TID 0000.0001) %MON obc_N_vVel_mean              =   1.4837629608450E-05
(PID.TID 0000.0001) %MON obc_N_vVel_sd                =  -2.1403298349810E-23
(PID.TID 0000.0001) %MON obc_N_vVel_Int               =   9.7928355415770E+02
(PID.TID 0000.0001) // =======================================================
(PID.TID 0000.0001) // End OBCS MONITOR field statistics
(PID.TID 0000.0001) // =======================================================
 cg2d: Sum(rhs),rhsMax =   4.50790410296513E+00  2.99962871930497E+02
(PID.TID 0000.0001)      cg2d_init_res =   1.06958831720429E-05
(PID.TID 0000.0001)      cg2d_iters(min,last) =      -1      84
(PID.TID 0000.0001)      cg2d_last_res =   9.72318384429566E-12
(PID.TID 0000.0001) // =======================================================
(PID.TID 0000.0001) // Begin MONITOR dynamic field statistics
(PID.TID 0000.0001) // =======================================================
(PID.TID 0000.0001) %MON time_tsnumber                =                  1429
(PID.TID 0000.0001) %MON time_secondsf                =   1.4290000000000E+05
(PID.TID 0000.0001) %MON dynstat_eta_max              =   5.8008930376082E+00
(PID.TID 0000.0001) %MON dynstat_eta_min              =  -1.4192646053074E+01
(PID.TID 0000.0001) %MON dynstat_eta_mean             =  -2.5040812242828E+00
(PID.TID 0000.0001) %MON dynstat_eta_sd               =   4.9500943209622E+00
(PID.TID 0000.0001) %MON dynstat_eta_del2             =   2.0716693012982E-01
(PID.TID 0000.0001) %MON dynstat_uvel_max             =   1.2473272369435E-02
(PID.TID 0000.0001) %MON dynstat_uvel_min             =  -5.6570732795939E-02
(PID.TID 0000.0001) %MON dynstat_uvel_mean            =  -1.0693993309820E-07
(PID.TID 0000.0001) %MON dynstat_uvel_sd              =   1.6373944322049E-03
(PID.TID 0000.0001) %MON dynstat_uvel_del2            =   2.4884222466871E-06
(PID.TID 0000.0001) %MON dynstat_vvel_max             =   3.6722076532578E-02
(PID.TID 0000.0001) %MON dynstat_vvel_min             =  -1.9354494335133E-02
(PID.TID 0000.0001) %MON dynstat_vvel_mean            =   1.5143031487109E-05
(PID.TID 0000.0001) %MON dynstat_vvel_sd              =   8.6695167570446E-04
(PID.TID 0000.0001) %MON dynstat_vvel_del2            =   1.7958129561122E-06
(PID.TID 0000.0001) %MON dynstat_wvel_max             =   2.0210671891284E-03
(PID.TID 0000.0001) %MON dynstat_wvel_min             =  -1.9602721293238E-03
(PID.TID 0000.0001) %MON dynstat_wvel_mean            =   7.2906790088847E-09
(PID.TID 0000.0001) %MON dynstat_wvel_sd              =   3.2518637150368E-05
(PID.TID 0000.0001) %MON dynstat_wvel_del2            =   1.3043052287084E-07
(PID.TID 0000.0001) %MON dynstat_theta_max            =   1.2000000000000E+00
(PID.TID 0000.0001) %MON dynstat_theta_min            =  -1.0000000000000E+00
(PID.TID 0000.0001) %MON dynstat_theta_mean           =   5.6829086674671E-01
(PID.TID 0000.0001) %MON dynstat_theta_sd             =   8.6814742389067E-01
(PID.TID 0000.0001) %MON dynstat_theta_del2           =   5.6865062790212E-06
(PID.TID 0000.0001) %MON dynstat_salt_max             =   3.4700000000000E+01
(PID.TID 0000.0001) %MON dynstat_salt_min             =   3.4000000000000E+01
(PID.TID 0000.0001) %MON dynstat_salt_mean            =   3.4498930406094E+01
(PID.TID 0000.0001) %MON dynstat_salt_sd              =   2.7620014462550E-01
(PID.TID 0000.0001) %MON dynstat_salt_del2            =   2.2533806061023E-06
(PID.TID 0000.0001) %MON advcfl_uvel_max              =   5.6570732795939E-03
(PID.TID 0000.0001) %MON advcfl_vvel_max              =   3.6722076532578E-03
(PID.TID 0000.0001) %MON advcfl_wvel_max              =   1.0105335945642E-02
(PID.TID 0000.0001) %MON advcfl_W_hf_max              =   1.0105335945642E-02
(PID.TID 0000.0001) %MON pe_b_mean                    =  -8.2967024435280E-01
(PID.TID 0000.0001) %MON ke_max                       =   1.3359169443716E-03
(PID.TID 0000.0001) %MON ke_mean                      =   1.6898558366024E-06
(PID.TID 0000.0001) %MON ke_vol                       =   4.2724657746492E+12
(PID.TID 0000.0001) // =======================================================
(PID.TID 0000.0001) // End MONITOR dynamic field statistics
(PID.TID 0000.0001) // =======================================================
(PID.TID 0000.0001) // =======================================================
(PID.TID 0000.0001) // Begin OBCS MONITOR field statistics
(PID.TID 0000.0001) // =======================================================
(PID.TID 0000.0001) %MON obc_N_vVel_max               =   1.4843413696268E-05
(PID.TID 0000.0001) %MON obc_N_vVel_min               =   1.4843413696268E-05
(PID.TID 0000.0001) %MON obc_N_vVel_mean              =   1.4843413696268E-05
(PID.TID 0000.0001) %MON obc_N_vVel_sd                =  -2.0188376825122E-23
(PID.TID 0000.0001) %MON obc_N_vVel_Int               =   9.7966530395372E+02
(PID.TID 0000.0001) // =======================================================
(PID.TID 0000.0001) // End OBCS MONITOR field statistics
(PID.TID 0000.0001) // =======================================================
 cg2d: Sum(rhs),rhsMax =   4.50790811694230E+00  2.99962948209982E+02
(PID.TID 0000.0001)      cg2d_init_res =   1.07144172418505E-05
(PID.TID 0000.0001)      cg2d_iters(min,last) =      -1      84
(PID.TID 0000.0001)      cg2d_last_res =   9.73881509766236E-12
(PID.TID 0000.0001) // =======================================================
(PID.TID 0000.0001) // Begin MONITOR dynamic field statistics
(PID.TID 0000.0001) // =======================================================
(PID.TID 0000.0001) %MON time_tsnumber                =                  1430
(PID.TID 0000.0001) %MON time_secondsf                =   1.4300000000000E+05
(PID.TID 0000.0001) %MON dynstat_eta_max              =   5.8009224880836E+00
(PID.TID 0000.0001) %MON dynstat_eta_min              =  -1.4192675808893E+01
(PID.TID 0000.0001) %MON dynstat_eta_mean             =  -2.5040840907736E+00
(PID.TID 0000.0001) %MON dynstat_eta_sd               =   4.9500958590206E+00
(PID.TID 0000.0001) %MON dynstat_eta_del2             =   2.0716698417775E-01
(PID.TID 0000.0001) %MON dynstat_uvel_max             =   1.2501465706364E-02
(PID.TID 0000.0001) %MON dynstat_uvel_min             =  -5.6686611912311E-02
(PID.TID 0000.0001) %MON dynstat_uvel_mean            =  -1.0698125954039E-07
(PID.TID 0000.0001) %MON dynstat_uvel_sd              =   1.6409776038400E-03
(PID.TID 0000.0001) %MON dynstat_uvel_del2            =   2.4944618200662E-06
(PID.TID 0000.0001) %MON dynstat_vvel_max             =   3.6771107837715E-02
(PID.TID 0000.0001) %MON dynstat_vvel_min             =  -1.9400955746727E-02
(PID.TID 0000.0001) %MON dynstat_vvel_mean            =   1.5152238196306E-05
(PID.TID 0000.0001) %MON dynstat_vvel_sd              =   8.6862273472540E-04
(PID.TID 0000.0001) %MON dynstat_vvel_del2            =   1.7993235068382E-06
(PID.TID 0000.0001) %MON dynstat_wvel_max             =   2.0242247313572E-03
(PID.TID 0000.0001) %MON dynstat_wvel_min             =  -1.9635203132087E-03
(PID.TID 0000.0001) %MON dynstat_wvel_mean            =   7.3133423361649E-09
(PID.TID 0000.0001) %MON dynstat_wvel_sd              =   3.2564218908125E-05
(PID.TID 0000.0001) %MON dynstat_wvel_del2            =   1.3061359058820E-07
(PID.TID 0000.0001) %MON dynstat_theta_max            =   1.2000000000000E+00
(PID.TID 0000.0001) %MON dynstat_theta_min            =  -1.0000000000000E+00
(PID.TID 0000.0001) %MON dynstat_theta_mean           =   5.6828923806120E-01
(PID.TID 0000.0001) %MON dynstat_theta_sd             =   8.6814657552354E-01
(PID.TID 0000.0001) %MON dynstat_theta_del2           =   5.6971885369729E-06
(PID.TID 0000.0001) %MON dynstat_salt_max             =   3.4700000000000E+01
(PID.TID 0000.0001) %MON dynstat_salt_min             =   3.4000000000000E+01
(PID.TID 0000.0001) %MON dynstat_salt_mean            =   3.4498929754212E+01
(PID.TID 0000.0001) %MON dynstat_salt_sd              =   2.7619982033058E-01
(PID.TID 0000.0001) %MON dynstat_salt_del2            =   2.2576272232801E-06
(PID.TID 0000.0001) %MON advcfl_uvel_max              =   5.6686611912311E-03
(PID.TID 0000.0001) %MON advcfl_vvel_max              =   3.6771107837715E-03
(PID.TID 0000.0001) %MON advcfl_wvel_max              =   1.0121123656786E-02
(PID.TID 0000.0001) %MON advcfl_W_hf_max              =   1.0121123656786E-02
(PID.TID 0000.0001) %MON pe_b_mean                    =  -8.2967036934053E-01
(PID.TID 0000.0001) %MON ke_max                       =   1.3419389682680E-03
(PID.TID 0000.0001) %MON ke_mean                      =   1.6970630946682E-06
(PID.TID 0000.0001) %MON ke_vol                       =   4.2724657575278E+12
(PID.TID 0000.0001) // =======================================================
(PID.TID 0000.0001) // End MONITOR dynamic field statistics
(PID.TID 0000.0001) // =======================================================
(PID.TID 0000.0001) // =======================================================
(PID.TID 0000.0001) // Begin OBCS MONITOR field statistics
(PID.TID 0000.0001) // =======================================================
(PID.TID 0000.0001) %MON obc_N_vVel_max               =   1.4850525196132E-05
(PID.TID 0000.0001) %MON obc_N_vVel_min               =   1.4850525196131E-05
(PID.TID 0000.0001) %MON obc_N_vVel_mean              =   1.4850525196132E-05
(PID.TID 0000.0001) %MON obc_N_vVel_sd                =  -2.1377448955667E-23
(PID.TID 0000.0001) %MON obc_N_vVel_Int               =   9.8013466294470E+02
(PID.TID 0000.0001) // =======================================================
(PID.TID 0000.0001) // End OBCS MONITOR field statistics
(PID.TID 0000.0001) // =======================================================
 cg2d: Sum(rhs),rhsMax =   4.50791210204422E+00  2.99963024657681E+02
(PID.TID 0000.0001)      cg2d_init_res =   1.07329363086632E-05
(PID.TID 0000.0001)      cg2d_iters(min,last) =      -1      84
(PID.TID 0000.0001)      cg2d_last_res =   9.75369780884045E-12
(PID.TID 0000.0001) // =======================================================
(PID.TID 0000.0001) // Begin MONITOR dynamic field statistics
(PID.TID 0000.0001) // =======================================================
(PID.TID 0000.0001) %MON time_tsnumber                =                  1431
(PID.TID 0000.0001) %MON time_secondsf                =   1.4310000000000E+05
(PID.TID 0000.0001) %MON dynstat_eta_max              =   5.8009520190841E+00
(PID.TID 0000.0001) %MON dynstat_eta_min              =  -1.4192705579165E+01
(PID.TID 0000.0001) %MON dynstat_eta_mean             =  -2.5040869426299E+00
(PID.TID 0000.0001) %MON dynstat_eta_sd               =   4.9500973940989E+00
(PID.TID 0000.0001) %MON dynstat_eta_del2             =   2.0716703830622E-01
(PID.TID 0000.0001) %MON dynstat_uvel_max             =   1.2529703081849E-02
(PID.TID 0000.0001) %MON dynstat_uvel_min             =  -5.6802581369328E-02
(PID.TID 0000.0001) %MON dynstat_uvel_mean            =  -1.0701326855131E-07
(PID.TID 0000.0001) %MON dynstat_uvel_sd              =   1.6445671666850E-03
(PID.TID 0000.0001) %MON dynstat_uvel_del2            =   2.5005158189342E-06
(PID.TID 0000.0001) %MON dynstat_vvel_max             =   3.6820110056624E-02
(PID.TID 0000.0001) %MON dynstat_vvel_min             =  -1.9447505312934E-02
(PID.TID 0000.0001) %MON dynstat_vvel_mean            =   1.5162665105292E-05
(PID.TID 0000.0001) %MON dynstat_vvel_sd              =   8.7029756094468E-04
(PID.TID 0000.0001) %MON dynstat_vvel_del2            =   1.8028410324838E-06
(PID.TID 0000.0001) %MON dynstat_wvel_max             =   2.0273811694604E-03
(PID.TID 0000.0001) %MON dynstat_wvel_min             =  -1.9667692195881E-03
(PID.TID 0000.0001) %MON dynstat_wvel_mean            =   7.3360565764429E-09
(PID.TID 0000.0001) %MON dynstat_wvel_sd              =   3.2611864850024E-05
(PID.TID 0000.0001) %MON dynstat_wvel_del2            =   1.3079831059540E-07
(PID.TID 0000.0001) %MON dynstat_theta_max            =   1.2000000000000E+00
(PID.TID 0000.0001) %MON dynstat_theta_min            =  -1.0000000000000E+00
(PID.TID 0000.0001) %MON dynstat_theta_mean           =   5.6828760659394E-01
(PID.TID 0000.0001) %MON dynstat_theta_sd             =   8.6814572584362E-01
(PID.TID 0000.0001) %MON dynstat_theta_del2           =   5.7078856193617E-06
(PID.TID 0000.0001) %MON dynstat_salt_max             =   3.4700000000000E+01
(PID.TID 0000.0001) %MON dynstat_salt_min             =   3.4000000000000E+01
(PID.TID 0000.0001) %MON dynstat_salt_mean            =   3.4498929101210E+01
(PID.TID 0000.0001) %MON dynstat_salt_sd              =   2.7619949555343E-01
(PID.TID 0000.0001) %MON dynstat_salt_del2            =   2.2618797333362E-06
(PID.TID 0000.0001) %MON advcfl_uvel_max              =   5.6802581369328E-03
(PID.TID 0000.0001) %MON advcfl_vvel_max              =   3.6820110056624E-03
(PID.TID 0000.0001) %MON advcfl_wvel_max              =   1.0136905847302E-02
(PID.TID 0000.0001) %MON advcfl_W_hf_max              =   1.0136905847302E-02
(PID.TID 0000.0001) %MON pe_b_mean                    =  -8.2967048872476E-01
(PID.TID 0000.0001) %MON ke_max                       =   1.3479810694573E-03
(PID.TID 0000.0001) %MON ke_mean                      =   1.7042993289458E-06
(PID.TID 0000.0001) %MON ke_vol                       =   4.2724657405008E+12
(PID.TID 0000.0001) // =======================================================
(PID.TID 0000.0001) // End MONITOR dynamic field statistics
(PID.TID 0000.0001) // =======================================================
(PID.TID 0000.0001) // =======================================================
(PID.TID 0000.0001) // Begin OBCS MONITOR field statistics
(PID.TID 0000.0001) // =======================================================
(PID.TID 0000.0001) %MON obc_N_vVel_max               =   1.4858812790377E-05
(PID.TID 0000.0001) %MON obc_N_vVel_min               =   1.4858812790377E-05
(PID.TID 0000.0001) %MON obc_N_vVel_mean              =   1.4858812790377E-05
(PID.TID 0000.0001) %MON obc_N_vVel_sd                =   3.1628650829688E-12
(PID.TID 0000.0001) %MON obc_N_vVel_Int               =   9.8068164416486E+02
(PID.TID 0000.0001) // =======================================================
(PID.TID 0000.0001) // End OBCS MONITOR field statistics
(PID.TID 0000.0001) // =======================================================
 cg2d: Sum(rhs),rhsMax =   4.50791606032817E+00  2.99963101265790E+02
(PID.TID 0000.0001)      cg2d_init_res =   1.07513345477432E-05
(PID.TID 0000.0001)      cg2d_iters(min,last) =      -1      84
(PID.TID 0000.0001)      cg2d_last_res =   9.76772597381483E-12
(PID.TID 0000.0001) // =======================================================
(PID.TID 0000.0001) // Begin MONITOR dynamic field statistics
(PID.TID 0000.0001) // =======================================================
(PID.TID 0000.0001) %MON time_tsnumber                =                  1432
(PID.TID 0000.0001) %MON time_secondsf                =   1.4320000000000E+05
(PID.TID 0000.0001) %MON dynstat_eta_max              =   5.8009816289515E+00
(PID.TID 0000.0001) %MON dynstat_eta_min              =  -1.4192735364446E+01
(PID.TID 0000.0001) %MON dynstat_eta_mean             =  -2.5040897809294E+00
(PID.TID 0000.0001) %MON dynstat_eta_sd               =   4.9500989263750E+00
(PID.TID 0000.0001) %MON dynstat_eta_del2             =   2.0716709251517E-01
(PID.TID 0000.0001) %MON dynstat_uvel_max             =   1.2557984558466E-02
(PID.TID 0000.0001) %MON dynstat_uvel_min             =  -5.6918640366973E-02
(PID.TID 0000.0001) %MON dynstat_uvel_mean            =  -1.0703479631384E-07
(PID.TID 0000.0001) %MON dynstat_uvel_sd              =   1.6481631197130E-03
(PID.TID 0000.0001) %MON dynstat_uvel_del2            =   2.5065842614615E-06
(PID.TID 0000.0001) %MON dynstat_vvel_max             =   3.6869082925559E-02
(PID.TID 0000.0001) %MON dynstat_vvel_min             =  -1.9494143022769E-02
(PID.TID 0000.0001) %MON dynstat_vvel_mean            =   1.5174096569547E-05
(PID.TID 0000.0001) %MON dynstat_vvel_sd              =   8.7197627032650E-04
(PID.TID 0000.0001) %MON dynstat_vvel_del2            =   1.8063654007544E-06
(PID.TID 0000.0001) %MON dynstat_wvel_max             =   2.0305364822342E-03
(PID.TID 0000.0001) %MON dynstat_wvel_min             =  -1.9700188306220E-03
(PID.TID 0000.0001) %MON dynstat_wvel_mean            =   7.3583824357341E-09
(PID.TID 0000.0001) %MON dynstat_wvel_sd              =   3.2661777135297E-05
(PID.TID 0000.0001) %MON dynstat_wvel_del2            =   1.3098404206497E-07
(PID.TID 0000.0001) %MON dynstat_theta_max            =   1.2000000000000E+00
(PID.TID 0000.0001) %MON dynstat_theta_min            =  -1.0000000000000E+00
(PID.TID 0000.0001) %MON dynstat_theta_mean           =   5.6828597234057E-01
(PID.TID 0000.0001) %MON dynstat_theta_sd             =   8.6814487484805E-01
(PID.TID 0000.0001) %MON dynstat_theta_del2           =   5.7185973588180E-06
(PID.TID 0000.0001) %MON dynstat_salt_max             =   3.4700000000000E+01
(PID.TID 0000.0001) %MON dynstat_salt_min             =   3.4000000000000E+01
(PID.TID 0000.0001) %MON dynstat_salt_mean            =   3.4498928447088E+01
(PID.TID 0000.0001) %MON dynstat_salt_sd              =   2.7619917029311E-01
(PID.TID 0000.0001) %MON dynstat_salt_del2            =   2.2661381017415E-06
(PID.TID 0000.0001) %MON advcfl_uvel_max              =   5.6918640366973E-03
(PID.TID 0000.0001) %MON advcfl_vvel_max              =   3.6869082925559E-03
(PID.TID 0000.0001) %MON advcfl_wvel_max              =   1.0152682411171E-02
(PID.TID 0000.0001) %MON advcfl_W_hf_max              =   1.0152682411171E-02
(PID.TID 0000.0001) %MON pe_b_mean                    =  -8.2967060273174E-01
(PID.TID 0000.0001) %MON ke_max                       =   1.3540432715138E-03
(PID.TID 0000.0001) %MON ke_mean                      =   1.7115647220591E-06
(PID.TID 0000.0001) %MON ke_vol                       =   4.2724657235608E+12
(PID.TID 0000.0001) // =======================================================
(PID.TID 0000.0001) // End MONITOR dynamic field statistics
(PID.TID 0000.0001) // =======================================================
(PID.TID 0000.0001) // =======================================================
(PID.TID 0000.0001) // Begin OBCS MONITOR field statistics
(PID.TID 0000.0001) // =======================================================
(PID.TID 0000.0001) %MON obc_N_vVel_max               =   1.4868102481760E-05
(PID.TID 0000.0001) %MON obc_N_vVel_min               =   1.4868102481760E-05
(PID.TID 0000.0001) %MON obc_N_vVel_mean              =   1.4868102481760E-05
(PID.TID 0000.0001) %MON obc_N_vVel_sd                =   3.2034683507858E-12
(PID.TID 0000.0001) %MON obc_N_vVel_Int               =   9.8129476379615E+02
(PID.TID 0000.0001) // =======================================================
(PID.TID 0000.0001) // End OBCS MONITOR field statistics
(PID.TID 0000.0001) // =======================================================
 cg2d: Sum(rhs),rhsMax =   4.50791999341817E+00  2.99963178029655E+02
(PID.TID 0000.0001)      cg2d_init_res =   1.07695071299092E-05
(PID.TID 0000.0001)      cg2d_iters(min,last) =      -1      84
(PID.TID 0000.0001)      cg2d_last_res =   9.78081268188598E-12
(PID.TID 0000.0001) // =======================================================
(PID.TID 0000.0001) // Begin MONITOR dynamic field statistics
(PID.TID 0000.0001) // =======================================================
(PID.TID 0000.0001) %MON time_tsnumber                =                  1433
(PID.TID 0000.0001) %MON time_secondsf                =   1.4330000000000E+05
(PID.TID 0000.0001) %MON dynstat_eta_max              =   5.8010113164859E+00
(PID.TID 0000.0001) %MON dynstat_eta_min              =  -1.4192765165045E+01
(PID.TID 0000.0001) %MON dynstat_eta_mean             =  -2.5040926065354E+00
(PID.TID 0000.0001) %MON dynstat_eta_sd               =   4.9501004559418E+00
(PID.TID 0000.0001) %MON dynstat_eta_del2             =   2.0716714680451E-01
(PID.TID 0000.0001) %MON dynstat_uvel_max             =   1.2586310199529E-02
(PID.TID 0000.0001) %MON dynstat_uvel_min             =  -5.7034788099272E-02
(PID.TID 0000.0001) %MON dynstat_uvel_mean            =  -1.0704490831027E-07
(PID.TID 0000.0001) %MON dynstat_uvel_sd              =   1.6517654620072E-03
(PID.TID 0000.0001) %MON dynstat_uvel_del2            =   2.5126671660055E-06
(PID.TID 0000.0001) %MON dynstat_vvel_max             =   3.6918026177275E-02
(PID.TID 0000.0001) %MON dynstat_vvel_min             =  -1.9540868866754E-02
(PID.TID 0000.0001) %MON dynstat_vvel_mean            =   1.5186298299187E-05
(PID.TID 0000.0001) %MON dynstat_vvel_sd              =   8.7365895408281E-04
(PID.TID 0000.0001) %MON dynstat_vvel_del2            =   1.8098964712341E-06
(PID.TID 0000.0001) %MON dynstat_wvel_max             =   2.0336906485324E-03
(PID.TID 0000.0001) %MON dynstat_wvel_min             =  -1.9732691278902E-03
(PID.TID 0000.0001) %MON dynstat_wvel_mean            =   7.3798927056972E-09
(PID.TID 0000.0001) %MON dynstat_wvel_sd              =   3.2714103110848E-05
(PID.TID 0000.0001) %MON dynstat_wvel_del2            =   1.3117012999524E-07
(PID.TID 0000.0001) %MON dynstat_theta_max            =   1.2000000000000E+00
(PID.TID 0000.0001) %MON dynstat_theta_min            =  -1.0000000000000E+00
(PID.TID 0000.0001) %MON dynstat_theta_mean           =   5.6828433529639E-01
(PID.TID 0000.0001) %MON dynstat_theta_sd             =   8.6814402253411E-01
(PID.TID 0000.0001) %MON dynstat_theta_del2           =   5.7293236172694E-06
(PID.TID 0000.0001) %MON dynstat_salt_max             =   3.4700000000000E+01
(PID.TID 0000.0001) %MON dynstat_salt_min             =   3.4000000000000E+01
(PID.TID 0000.0001) %MON dynstat_salt_mean            =   3.4498927791842E+01
(PID.TID 0000.0001) %MON dynstat_salt_sd              =   2.7619884454886E-01
(PID.TID 0000.0001) %MON dynstat_salt_del2            =   2.2704023035433E-06
(PID.TID 0000.0001) %MON advcfl_uvel_max              =   5.7034788099272E-03
(PID.TID 0000.0001) %MON advcfl_vvel_max              =   3.6918026177275E-03
(PID.TID 0000.0001) %MON advcfl_wvel_max              =   1.0168453242662E-02
(PID.TID 0000.0001) %MON advcfl_W_hf_max              =   1.0168453242662E-02
(PID.TID 0000.0001) %MON pe_b_mean                    =  -8.2967071152735E-01
(PID.TID 0000.0001) %MON ke_max                       =   1.3601255978827E-03
(PID.TID 0000.0001) %MON ke_mean                      =   1.7188594358288E-06
(PID.TID 0000.0001) %MON ke_vol                       =   4.2724657067013E+12
(PID.TID 0000.0001) // =======================================================
(PID.TID 0000.0001) // End MONITOR dynamic field statistics
(PID.TID 0000.0001) // =======================================================
(PID.TID 0000.0001) // =======================================================
(PID.TID 0000.0001) // Begin OBCS MONITOR field statistics
(PID.TID 0000.0001) // =======================================================
(PID.TID 0000.0001) %MON obc_N_vVel_max               =   1.4878201317004E-05
(PID.TID 0000.0001) %MON obc_N_vVel_min               =   1.4878201317004E-05
(PID.TID 0000.0001) %MON obc_N_vVel_mean              =   1.4878201317004E-05
(PID.TID 0000.0001) %MON obc_N_vVel_sd                =   2.6613406386604E-12
(PID.TID 0000.0001) %MON obc_N_vVel_Int               =   9.8196128692224E+02
(PID.TID 0000.0001) // =======================================================
(PID.TID 0000.0001) // End OBCS MONITOR field statistics
(PID.TID 0000.0001) // =======================================================
 cg2d: Sum(rhs),rhsMax =   4.50792390247803E+00  2.99963254947598E+02
(PID.TID 0000.0001)      cg2d_init_res =   1.07873550125959E-05
(PID.TID 0000.0001)      cg2d_iters(min,last) =      -1      84
(PID.TID 0000.0001)      cg2d_last_res =   9.79288795428168E-12
(PID.TID 0000.0001) // =======================================================
(PID.TID 0000.0001) // Begin MONITOR dynamic field statistics
(PID.TID 0000.0001) // =======================================================
(PID.TID 0000.0001) %MON time_tsnumber                =                  1434
(PID.TID 0000.0001) %MON time_secondsf                =   1.4340000000000E+05
(PID.TID 0000.0001) %MON dynstat_eta_max              =   5.8010410809797E+00
(PID.TID 0000.0001) %MON dynstat_eta_min              =  -1.4192794981006E+01
(PID.TID 0000.0001) %MON dynstat_eta_mean             =  -2.5040954200803E+00
(PID.TID 0000.0001) %MON dynstat_eta_sd               =   4.9501019828067E+00
(PID.TID 0000.0001) %MON dynstat_eta_del2             =   2.0716720117409E-01
(PID.TID 0000.0001) %MON dynstat_uvel_max             =   1.2614680068786E-02
(PID.TID 0000.0001) %MON dynstat_uvel_min             =  -5.7151023754183E-02
(PID.TID 0000.0001) %MON dynstat_uvel_mean            =  -1.0704291572490E-07
(PID.TID 0000.0001) %MON dynstat_uvel_sd              =   1.6553741928117E-03
(PID.TID 0000.0001) %MON dynstat_uvel_del2            =   2.5187645511690E-06
(PID.TID 0000.0001) %MON dynstat_vvel_max             =   3.6966939541951E-02
(PID.TID 0000.0001) %MON dynstat_vvel_min             =  -1.9587682835704E-02
(PID.TID 0000.0001) %MON dynstat_vvel_mean            =   1.5199022340494E-05
(PID.TID 0000.0001) %MON dynstat_vvel_sd              =   8.7534567728279E-04
(PID.TID 0000.0001) %MON dynstat_vvel_del2            =   1.8134341184360E-06
(PID.TID 0000.0001) %MON dynstat_wvel_max             =   2.0368436472352E-03
(PID.TID 0000.0001) %MON dynstat_wvel_min             =  -1.9765200925493E-03
(PID.TID 0000.0001) %MON dynstat_wvel_mean            =   7.4001806720847E-09
(PID.TID 0000.0001) %MON dynstat_wvel_sd              =   3.2768942271587E-05
(PID.TID 0000.0001) %MON dynstat_wvel_del2            =   1.3135601731779E-07
(PID.TID 0000.0001) %MON dynstat_theta_max            =   1.2000000000000E+00
(PID.TID 0000.0001) %MON dynstat_theta_min            =  -1.0000000000000E+00
(PID.TID 0000.0001) %MON dynstat_theta_mean           =   5.6828269545643E-01
(PID.TID 0000.0001) %MON dynstat_theta_sd             =   8.6814316889829E-01
(PID.TID 0000.0001) %MON dynstat_theta_del2           =   5.7400642776341E-06
(PID.TID 0000.0001) %MON dynstat_salt_max             =   3.4700000000000E+01
(PID.TID 0000.0001) %MON dynstat_salt_min             =   3.4000000000000E+01
(PID.TID 0000.0001) %MON dynstat_salt_mean            =   3.4498927135471E+01
(PID.TID 0000.0001) %MON dynstat_salt_sd              =   2.7619851831951E-01
(PID.TID 0000.0001) %MON dynstat_salt_del2            =   2.2746723217757E-06
(PID.TID 0000.0001) %MON advcfl_uvel_max              =   5.7151023754183E-03
(PID.TID 0000.0001) %MON advcfl_vvel_max              =   3.6966939541951E-03
(PID.TID 0000.0001) %MON advcfl_wvel_max              =   1.0184218236176E-02
(PID.TID 0000.0001) %MON advcfl_W_hf_max              =   1.0184218236176E-02
(PID.TID 0000.0001) %MON pe_b_mean                    =  -8.2967081521390E-01
(PID.TID 0000.0001) %MON ke_max                       =   1.3662280719010E-03
(PID.TID 0000.0001) %MON ke_mean                      =   1.7261836100070E-06
(PID.TID 0000.0001) %MON ke_vol                       =   4.2724656899172E+12
(PID.TID 0000.0001) // =======================================================
(PID.TID 0000.0001) // End MONITOR dynamic field statistics
(PID.TID 0000.0001) // =======================================================
(PID.TID 0000.0001) // =======================================================
(PID.TID 0000.0001) // Begin OBCS MONITOR field statistics
(PID.TID 0000.0001) // =======================================================
(PID.TID 0000.0001) %MON obc_N_vVel_max               =   1.4888901545740E-05
(PID.TID 0000.0001) %MON obc_N_vVel_min               =   1.4888901545739E-05
(PID.TID 0000.0001) %MON obc_N_vVel_mean              =   1.4888901545740E-05
(PID.TID 0000.0001) %MON obc_N_vVel_sd                =  -7.1344327832699E-24
(PID.TID 0000.0001) %MON obc_N_vVel_Int               =   9.8266750201882E+02
(PID.TID 0000.0001) // =======================================================
(PID.TID 0000.0001) // End OBCS MONITOR field statistics
(PID.TID 0000.0001) // =======================================================
 cg2d: Sum(rhs),rhsMax =   4.50792778846312E+00  2.99963332002796E+02
(PID.TID 0000.0001)      cg2d_init_res =   1.08047960611914E-05
(PID.TID 0000.0001)      cg2d_iters(min,last) =      -1      84
(PID.TID 0000.0001)      cg2d_last_res =   9.80389686555915E-12
(PID.TID 0000.0001) // =======================================================
(PID.TID 0000.0001) // Begin MONITOR dynamic field statistics
(PID.TID 0000.0001) // =======================================================
(PID.TID 0000.0001) %MON time_tsnumber                =                  1435
(PID.TID 0000.0001) %MON time_secondsf                =   1.4350000000000E+05
(PID.TID 0000.0001) %MON dynstat_eta_max              =   5.8010709222277E+00
(PID.TID 0000.0001) %MON dynstat_eta_min              =  -1.4192824812113E+01
(PID.TID 0000.0001) %MON dynstat_eta_mean             =  -2.5040982219544E+00
(PID.TID 0000.0001) %MON dynstat_eta_sd               =   4.9501035068927E+00
(PID.TID 0000.0001) %MON dynstat_eta_del2             =   2.0716725562376E-01
(PID.TID 0000.0001) %MON dynstat_uvel_max             =   1.2643094230082E-02
(PID.TID 0000.0001) %MON dynstat_uvel_min             =  -5.7267346514392E-02
(PID.TID 0000.0001) %MON dynstat_uvel_mean            =  -1.0702838444588E-07
(PID.TID 0000.0001) %MON dynstat_uvel_sd              =   1.6589893115814E-03
(PID.TID 0000.0001) %MON dynstat_uvel_del2            =   2.5248764359917E-06
(PID.TID 0000.0001) %MON dynstat_vvel_max             =   3.7015822748462E-02
(PID.TID 0000.0001) %MON dynstat_vvel_min             =  -1.9634584919746E-02
(PID.TID 0000.0001) %MON dynstat_vvel_mean            =   1.5212012298741E-05
(PID.TID 0000.0001) %MON dynstat_vvel_sd              =   8.7703647798029E-04
(PID.TID 0000.0001) %MON dynstat_vvel_del2            =   1.8169782512016E-06
(PID.TID 0000.0001) %MON dynstat_wvel_max             =   2.0399954572581E-03
(PID.TID 0000.0001) %MON dynstat_wvel_min             =  -1.9797717053669E-03
(PID.TID 0000.0001) %MON dynstat_wvel_mean            =   7.4188685585077E-09
(PID.TID 0000.0001) %MON dynstat_wvel_sd              =   3.2826352981806E-05
(PID.TID 0000.0001) %MON dynstat_wvel_del2            =   1.3154134338235E-07
(PID.TID 0000.0001) %MON dynstat_theta_max            =   1.2000000000000E+00
(PID.TID 0000.0001) %MON dynstat_theta_min            =  -1.0000000000000E+00
(PID.TID 0000.0001) %MON dynstat_theta_mean           =   5.6828105281543E-01
(PID.TID 0000.0001) %MON dynstat_theta_sd             =   8.6814231393703E-01
(PID.TID 0000.0001) %MON dynstat_theta_del2           =   5.7508182334077E-06
(PID.TID 0000.0001) %MON dynstat_salt_max             =   3.4700000000000E+01
(PID.TID 0000.0001) %MON dynstat_salt_min             =   3.4000000000000E+01
(PID.TID 0000.0001) %MON dynstat_salt_mean            =   3.4498926477973E+01
(PID.TID 0000.0001) %MON dynstat_salt_sd              =   2.7619819160443E-01
(PID.TID 0000.0001) %MON dynstat_salt_del2            =   2.2789481368921E-06
(PID.TID 0000.0001) %MON advcfl_uvel_max              =   5.7267346514392E-03
(PID.TID 0000.0001) %MON advcfl_vvel_max              =   3.7015822748462E-03
(PID.TID 0000.0001) %MON advcfl_wvel_max              =   1.0199977286291E-02
(PID.TID 0000.0001) %MON advcfl_W_hf_max              =   1.0199977286291E-02
(PID.TID 0000.0001) %MON pe_b_mean                    =  -8.2967091382855E-01
(PID.TID 0000.0001) %MON ke_max                       =   1.3723507168196E-03
(PID.TID 0000.0001) %MON ke_mean                      =   1.7335373614549E-06
(PID.TID 0000.0001) %MON ke_vol                       =   4.2724656732047E+12
(PID.TID 0000.0001) // =======================================================
(PID.TID 0000.0001) // End MONITOR dynamic field statistics
(PID.TID 0000.0001) // =======================================================
(PID.TID 0000.0001) // =======================================================
(PID.TID 0000.0001) // Begin OBCS MONITOR field statistics
(PID.TID 0000.0001) // =======================================================
(PID.TID 0000.0001) %MON obc_N_vVel_max               =   1.4899985009038E-05
(PID.TID 0000.0001) %MON obc_N_vVel_min               =   1.4899985009038E-05
(PID.TID 0000.0001) %MON obc_N_vVel_mean              =   1.4899985009038E-05
(PID.TID 0000.0001) %MON obc_N_vVel_sd                =   3.5770728396875E-12
(PID.TID 0000.0001) %MON obc_N_vVel_Int               =   9.8339901059650E+02
(PID.TID 0000.0001) // =======================================================
(PID.TID 0000.0001) // End OBCS MONITOR field statistics
(PID.TID 0000.0001) // =======================================================
 cg2d: Sum(rhs),rhsMax =   4.50793165191431E+00  2.99963409176165E+02
(PID.TID 0000.0001)      cg2d_init_res =   1.08217558023320E-05
(PID.TID 0000.0001)      cg2d_iters(min,last) =      -1      84
(PID.TID 0000.0001)      cg2d_last_res =   9.81381867476135E-12
(PID.TID 0000.0001) // =======================================================
(PID.TID 0000.0001) // Begin MONITOR dynamic field statistics
(PID.TID 0000.0001) // =======================================================
(PID.TID 0000.0001) %MON time_tsnumber                =                  1436
(PID.TID 0000.0001) %MON time_secondsf                =   1.4360000000000E+05
(PID.TID 0000.0001) %MON dynstat_eta_max              =   5.8011008405253E+00
(PID.TID 0000.0001) %MON dynstat_eta_min              =  -1.4192854657891E+01
(PID.TID 0000.0001) %MON dynstat_eta_mean             =  -2.5041010122988E+00
(PID.TID 0000.0001) %MON dynstat_eta_sd               =   4.9501050280392E+00
(PID.TID 0000.0001) %MON dynstat_eta_del2             =   2.0716731015331E-01
(PID.TID 0000.0001) %MON dynstat_uvel_max             =   1.2671552770497E-02
(PID.TID 0000.0001) %MON dynstat_uvel_min             =  -5.7383755558657E-02
(PID.TID 0000.0001) %MON dynstat_uvel_mean            =  -1.0700114333429E-07
(PID.TID 0000.0001) %MON dynstat_uvel_sd              =   1.6626108176276E-03
(PID.TID 0000.0001) %MON dynstat_uvel_del2            =   2.5310028404275E-06
(PID.TID 0000.0001) %MON dynstat_vvel_max             =   3.7064675525375E-02
(PID.TID 0000.0001) %MON dynstat_vvel_min             =  -1.9681575141792E-02
(PID.TID 0000.0001) %MON dynstat_vvel_mean            =   1.5225008690090E-05
(PID.TID 0000.0001) %MON dynstat_vvel_sd              =   8.7873136675302E-04
(PID.TID 0000.0001) %MON dynstat_vvel_del2            =   1.8205288252960E-06
(PID.TID 0000.0001) %MON dynstat_wvel_max             =   2.0431460575438E-03
(PID.TID 0000.0001) %MON dynstat_wvel_min             =  -1.9830239474049E-03
(PID.TID 0000.0001) %MON dynstat_wvel_mean            =   7.4356144834746E-09
(PID.TID 0000.0001) %MON dynstat_wvel_sd              =   3.2886357749124E-05
(PID.TID 0000.0001) %MON dynstat_wvel_del2            =   1.3172601860044E-07
(PID.TID 0000.0001) %MON dynstat_theta_max            =   1.2000000000000E+00
(PID.TID 0000.0001) %MON dynstat_theta_min            =  -1.0000000000000E+00
(PID.TID 0000.0001) %MON dynstat_theta_mean           =   5.6827940736778E-01
(PID.TID 0000.0001) %MON dynstat_theta_sd             =   8.6814145764740E-01
(PID.TID 0000.0001) %MON dynstat_theta_del2           =   5.7615857045978E-06
(PID.TID 0000.0001) %MON dynstat_salt_max             =   3.4700000000000E+01
(PID.TID 0000.0001) %MON dynstat_salt_min             =   3.4000000000000E+01
(PID.TID 0000.0001) %MON dynstat_salt_mean            =   3.4498925819347E+01
(PID.TID 0000.0001) %MON dynstat_salt_sd              =   2.7619786440174E-01
(PID.TID 0000.0001) %MON dynstat_salt_del2            =   2.2832290837672E-06
(PID.TID 0000.0001) %MON advcfl_uvel_max              =   5.7383755558657E-03
(PID.TID 0000.0001) %MON advcfl_vvel_max              =   3.7064675525375E-03
(PID.TID 0000.0001) %MON advcfl_wvel_max              =   1.0215730287719E-02
(PID.TID 0000.0001) %MON advcfl_W_hf_max              =   1.0215730287719E-02
(PID.TID 0000.0001) %MON pe_b_mean                    =  -8.2967100734269E-01
(PID.TID 0000.0001) %MON ke_max                       =   1.3784935558418E-03
(PID.TID 0000.0001) %MON ke_mean                      =   1.7409207830181E-06
(PID.TID 0000.0001) %MON ke_vol                       =   4.2724656565616E+12
(PID.TID 0000.0001) // =======================================================
(PID.TID 0000.0001) // End MONITOR dynamic field statistics
(PID.TID 0000.0001) // =======================================================
(PID.TID 0000.0001) // =======================================================
(PID.TID 0000.0001) // Begin OBCS MONITOR field statistics
(PID.TID 0000.0001) // =======================================================
(PID.TID 0000.0001) %MON obc_N_vVel_max               =   1.4911227738777E-05
(PID.TID 0000.0001) %MON obc_N_vVel_min               =   1.4911227738776E-05
(PID.TID 0000.0001) %MON obc_N_vVel_mean              =   1.4911227738776E-05
(PID.TID 0000.0001) %MON obc_N_vVel_sd                =   2.7754494148516E-12
(PID.TID 0000.0001) %MON obc_N_vVel_Int               =   9.8414103075925E+02
(PID.TID 0000.0001) // =======================================================
(PID.TID 0000.0001) // End OBCS MONITOR field statistics
(PID.TID 0000.0001) // =======================================================
 cg2d: Sum(rhs),rhsMax =   4.50793549295234E+00  2.99963486446655E+02
(PID.TID 0000.0001)      cg2d_init_res =   1.08381724332996E-05
(PID.TID 0000.0001)      cg2d_iters(min,last) =      -1      84
(PID.TID 0000.0001)      cg2d_last_res =   9.82263608920533E-12
(PID.TID 0000.0001) // =======================================================
(PID.TID 0000.0001) // Begin MONITOR dynamic field statistics
(PID.TID 0000.0001) // =======================================================
(PID.TID 0000.0001) %MON time_tsnumber                =                  1437
(PID.TID 0000.0001) %MON time_secondsf                =   1.4370000000000E+05
(PID.TID 0000.0001) %MON dynstat_eta_max              =   5.8011308366715E+00
(PID.TID 0000.0001) %MON dynstat_eta_min              =  -1.4192884517614E+01
(PID.TID 0000.0001) %MON dynstat_eta_mean             =  -2.5041037910048E+00
(PID.TID 0000.0001) %MON dynstat_eta_sd               =   4.9501065460069E+00
(PID.TID 0000.0001) %MON dynstat_eta_del2             =   2.0716736476252E-01
(PID.TID 0000.0001) %MON dynstat_uvel_max             =   1.2700055636349E-02
(PID.TID 0000.0001) %MON dynstat_uvel_min             =  -5.7500250059201E-02
(PID.TID 0000.0001) %MON dynstat_uvel_mean            =  -1.0696129715717E-07
(PID.TID 0000.0001) %MON dynstat_uvel_sd              =   1.6662387129222E-03
(PID.TID 0000.0001) %MON dynstat_uvel_del2            =   2.5371437826232E-06
(PID.TID 0000.0001) %MON dynstat_vvel_max             =   3.7113497602001E-02
(PID.TID 0000.0001) %MON dynstat_vvel_min             =  -1.9728653297996E-02
(PID.TID 0000.0001) %MON dynstat_vvel_mean            =   1.5237754428291E-05
(PID.TID 0000.0001) %MON dynstat_vvel_sd              =   8.8043032689489E-04
(PID.TID 0000.0001) %MON dynstat_vvel_del2            =   1.8240858595950E-06
(PID.TID 0000.0001) %MON dynstat_wvel_max             =   2.0462954270565E-03
(PID.TID 0000.0001) %MON dynstat_wvel_min             =  -1.9862767933523E-03
(PID.TID 0000.0001) %MON dynstat_wvel_mean            =   7.4501227174935E-09
(PID.TID 0000.0001) %MON dynstat_wvel_sd              =   3.2948948006057E-05
(PID.TID 0000.0001) %MON dynstat_wvel_del2            =   1.3191027410020E-07
(PID.TID 0000.0001) %MON dynstat_theta_max            =   1.2000000000000E+00
(PID.TID 0000.0001) %MON dynstat_theta_min            =  -1.0000000000000E+00
(PID.TID 0000.0001) %MON dynstat_theta_mean           =   5.6827775910768E-01
(PID.TID 0000.0001) %MON dynstat_theta_sd             =   8.6814060002819E-01
(PID.TID 0000.0001) %MON dynstat_theta_del2           =   5.7723668533069E-06
(PID.TID 0000.0001) %MON dynstat_salt_max             =   3.4700000000000E+01
(PID.TID 0000.0001) %MON dynstat_salt_min             =   3.4000000000000E+01
(PID.TID 0000.0001) %MON dynstat_salt_mean            =   3.4498925159588E+01
(PID.TID 0000.0001) %MON dynstat_salt_sd              =   2.7619753671186E-01
(PID.TID 0000.0001) %MON dynstat_salt_del2            =   2.2875158035666E-06
(PID.TID 0000.0001) %MON advcfl_uvel_max              =   5.7500250059201E-03
(PID.TID 0000.0001) %MON advcfl_vvel_max              =   3.7113497602001E-03
(PID.TID 0000.0001) %MON advcfl_wvel_max              =   1.0231477135283E-02
(PID.TID 0000.0001) %MON advcfl_W_hf_max              =   1.0231477135283E-02
(PID.TID 0000.0001) %MON pe_b_mean                    =  -8.2967109566313E-01
(PID.TID 0000.0001) %MON ke_max                       =   1.3846566120775E-03
(PID.TID 0000.0001) %MON ke_mean                      =   1.7483339481238E-06
(PID.TID 0000.0001) %MON ke_vol                       =   4.2724656399869E+12
(PID.TID 0000.0001) // =======================================================
(PID.TID 0000.0001) // End MONITOR dynamic field statistics
(PID.TID 0000.0001) // =======================================================
(PID.TID 0000.0001) // =======================================================
(PID.TID 0000.0001) // Begin OBCS MONITOR field statistics
(PID.TID 0000.0001) // =======================================================
(PID.TID 0000.0001) %MON obc_N_vVel_max               =   1.4922404617007E-05
(PID.TID 0000.0001) %MON obc_N_vVel_min               =   1.4922404617007E-05
(PID.TID 0000.0001) %MON obc_N_vVel_mean              =   1.4922404617007E-05
(PID.TID 0000.0001) %MON obc_N_vVel_sd                =  -1.3777727077836E-23
(PID.TID 0000.0001) %MON obc_N_vVel_Int               =   9.8487870472249E+02
(PID.TID 0000.0001) // =======================================================
(PID.TID 0000.0001) // End OBCS MONITOR field statistics
(PID.TID 0000.0001) // =======================================================
 cg2d: Sum(rhs),rhsMax =   4.50793931127921E+00  2.99963563791684E+02
(PID.TID 0000.0001)      cg2d_init_res =   1.08540119207572E-05
(PID.TID 0000.0001)      cg2d_iters(min,last) =      -1      84
(PID.TID 0000.0001)      cg2d_last_res =   9.83035080181837E-12
(PID.TID 0000.0001) // =======================================================
(PID.TID 0000.0001) // Begin MONITOR dynamic field statistics
(PID.TID 0000.0001) // =======================================================
(PID.TID 0000.0001) %MON time_tsnumber                =                  1438
(PID.TID 0000.0001) %MON time_secondsf                =   1.4380000000000E+05
(PID.TID 0000.0001) %MON dynstat_eta_max              =   5.8011609119333E+00
(PID.TID 0000.0001) %MON dynstat_eta_min              =  -1.4192914390317E+01
(PID.TID 0000.0001) %MON dynstat_eta_mean             =  -2.5041065577184E+00
(PID.TID 0000.0001) %MON dynstat_eta_sd               =   4.9501080604831E+00
(PID.TID 0000.0001) %MON dynstat_eta_del2             =   2.0716741945114E-01
(PID.TID 0000.0001) %MON dynstat_uvel_max             =   1.2728602896249E-02
(PID.TID 0000.0001) %MON dynstat_uvel_min             =  -5.7616829186629E-02
(PID.TID 0000.0001) %MON dynstat_uvel_mean            =  -1.0690917750254E-07
(PID.TID 0000.0001) %MON dynstat_uvel_sd              =   1.6698729977464E-03
(PID.TID 0000.0001) %MON dynstat_uvel_del2            =   2.5432992836704E-06
(PID.TID 0000.0001) %MON dynstat_vvel_max             =   3.7162288709790E-02
(PID.TID 0000.0001) %MON dynstat_vvel_min             =  -1.9775819418298E-02
(PID.TID 0000.0001) %MON dynstat_vvel_mean            =   1.5249999906819E-05
(PID.TID 0000.0001) %MON dynstat_vvel_sd              =   8.8213331437827E-04
(PID.TID 0000.0001) %MON dynstat_vvel_del2            =   1.8276494220508E-06
(PID.TID 0000.0001) %MON dynstat_wvel_max             =   2.0494435447883E-03
(PID.TID 0000.0001) %MON dynstat_wvel_min             =  -1.9895302313541E-03
(PID.TID 0000.0001) %MON dynstat_wvel_mean            =   7.4621409691797E-09
(PID.TID 0000.0001) %MON dynstat_wvel_sd              =   3.3014083014305E-05
(PID.TID 0000.0001) %MON dynstat_wvel_del2            =   1.3209466456480E-07
(PID.TID 0000.0001) %MON dynstat_theta_max            =   1.2000000000000E+00
(PID.TID 0000.0001) %MON dynstat_theta_min            =  -1.0000000000000E+00
(PID.TID 0000.0001) %MON dynstat_theta_mean           =   5.6827610802914E-01
(PID.TID 0000.0001) %MON dynstat_theta_sd             =   8.6813974107866E-01
(PID.TID 0000.0001) %MON dynstat_theta_del2           =   5.7831618185439E-06
(PID.TID 0000.0001) %MON dynstat_salt_max             =   3.4700000000000E+01
(PID.TID 0000.0001) %MON dynstat_salt_min             =   3.4000000000000E+01
(PID.TID 0000.0001) %MON dynstat_salt_mean            =   3.4498924498696E+01
(PID.TID 0000.0001) %MON dynstat_salt_sd              =   2.7619720853453E-01
(PID.TID 0000.0001) %MON dynstat_salt_del2            =   2.2918082783938E-06
(PID.TID 0000.0001) %MON advcfl_uvel_max              =   5.7616829186629E-03
(PID.TID 0000.0001) %MON advcfl_vvel_max              =   3.7162288709790E-03
(PID.TID 0000.0001) %MON advcfl_wvel_max              =   1.0247217723941E-02
(PID.TID 0000.0001) %MON advcfl_W_hf_max              =   1.0247217723941E-02
(PID.TID 0000.0001) %MON pe_b_mean                    =  -8.2967117863436E-01
(PID.TID 0000.0001) %MON ke_max                       =   1.3908399086852E-03
(PID.TID 0000.0001) %MON ke_mean                      =   1.7557769035178E-06
(PID.TID 0000.0001) %MON ke_vol                       =   4.2724656234814E+12
(PID.TID 0000.0001) // =======================================================
(PID.TID 0000.0001) // End MONITOR dynamic field statistics
(PID.TID 0000.0001) // =======================================================
(PID.TID 0000.0001) // =======================================================
(PID.TID 0000.0001) // Begin OBCS MONITOR field statistics
(PID.TID 0000.0001) // =======================================================
(PID.TID 0000.0001) %MON obc_N_vVel_max               =   1.4933294048044E-05
(PID.TID 0000.0001) %MON obc_N_vVel_min               =   1.4933294048044E-05
(PID.TID 0000.0001) %MON obc_N_vVel_mean              =   1.4933294048044E-05
(PID.TID 0000.0001) %MON obc_N_vVel_sd                =   3.5625907039485E-12
(PID.TID 0000.0001) %MON obc_N_vVel_Int               =   9.8559740717090E+02
(PID.TID 0000.0001) // =======================================================
(PID.TID 0000.0001) // End OBCS MONITOR field statistics
(PID.TID 0000.0001) // =======================================================
 cg2d: Sum(rhs),rhsMax =   4.50794310618648E+00  2.99963641187581E+02
(PID.TID 0000.0001)      cg2d_init_res =   1.08692370021718E-05
(PID.TID 0000.0001)      cg2d_iters(min,last) =      -1      84
(PID.TID 0000.0001)      cg2d_last_res =   9.83699415446619E-12
(PID.TID 0000.0001) // =======================================================
(PID.TID 0000.0001) // Begin MONITOR dynamic field statistics
(PID.TID 0000.0001) // =======================================================
(PID.TID 0000.0001) %MON time_tsnumber                =                  1439
(PID.TID 0000.0001) %MON time_secondsf                =   1.4390000000000E+05
(PID.TID 0000.0001) %MON dynstat_eta_max              =   5.8011910680398E+00
(PID.TID 0000.0001) %MON dynstat_eta_min              =  -1.4192944274829E+01
(PID.TID 0000.0001) %MON dynstat_eta_mean             =  -2.5041093118484E+00
(PID.TID 0000.0001) %MON dynstat_eta_sd               =   4.9501095710869E+00
(PID.TID 0000.0001) %MON dynstat_eta_del2             =   2.0716747421881E-01
(PID.TID 0000.0001) %MON dynstat_uvel_max             =   1.2757194606701E-02
(PID.TID 0000.0001) %MON dynstat_uvel_min             =  -5.7733492109997E-02
(PID.TID 0000.0001) %MON dynstat_uvel_mean            =  -1.0684540038083E-07
(PID.TID 0000.0001) %MON dynstat_uvel_sd              =   1.6735136727293E-03
(PID.TID 0000.0001) %MON dynstat_uvel_del2            =   2.5494693653510E-06
(PID.TID 0000.0001) %MON dynstat_vvel_max             =   3.7211048583073E-02
(PID.TID 0000.0001) %MON dynstat_vvel_min             =  -1.9823073497481E-02
(PID.TID 0000.0001) %MON dynstat_vvel_mean            =   1.5261508257625E-05
(PID.TID 0000.0001) %MON dynstat_vvel_sd              =   8.8384025861128E-04
(PID.TID 0000.0001) %MON dynstat_vvel_del2            =   1.8312196282032E-06
(PID.TID 0000.0001) %MON dynstat_wvel_max             =   2.0525903897431E-03
(PID.TID 0000.0001) %MON dynstat_wvel_min             =  -1.9927842406268E-03
(PID.TID 0000.0001) %MON dynstat_wvel_mean            =   7.4714739953942E-09
(PID.TID 0000.0001) %MON dynstat_wvel_sd              =   3.3081689114501E-05
(PID.TID 0000.0001) %MON dynstat_wvel_del2            =   1.3228004618885E-07
(PID.TID 0000.0001) %MON dynstat_theta_max            =   1.2000000000000E+00
(PID.TID 0000.0001) %MON dynstat_theta_min            =  -1.0000000000000E+00
(PID.TID 0000.0001) %MON dynstat_theta_mean           =   5.6827445412594E-01
(PID.TID 0000.0001) %MON dynstat_theta_sd             =   8.6813888079943E-01
(PID.TID 0000.0001) %MON dynstat_theta_del2           =   5.7939704658619E-06
(PID.TID 0000.0001) %MON dynstat_salt_max             =   3.4700000000000E+01
(PID.TID 0000.0001) %MON dynstat_salt_min             =   3.4000000000000E+01
(PID.TID 0000.0001) %MON dynstat_salt_mean            =   3.4498923836669E+01
(PID.TID 0000.0001) %MON dynstat_salt_sd              =   2.7619687986993E-01
(PID.TID 0000.0001) %MON dynstat_salt_del2            =   2.2961064724641E-06
(PID.TID 0000.0001) %MON advcfl_uvel_max              =   5.7733492109997E-03
(PID.TID 0000.0001) %MON advcfl_vvel_max              =   3.7211048583073E-03
(PID.TID 0000.0001) %MON advcfl_wvel_max              =   1.0262951948715E-02
(PID.TID 0000.0001) %MON advcfl_W_hf_max              =   1.0262951948715E-02
(PID.TID 0000.0001) %MON pe_b_mean                    =  -8.2967125604207E-01
(PID.TID 0000.0001) %MON ke_max                       =   1.3970434688764E-03
(PID.TID 0000.0001) %MON ke_mean                      =   1.7632496730944E-06
(PID.TID 0000.0001) %MON ke_vol                       =   4.2724656070472E+12
(PID.TID 0000.0001) // =======================================================
(PID.TID 0000.0001) // End MONITOR dynamic field statistics
(PID.TID 0000.0001) // =======================================================
(PID.TID 0000.0001) // =======================================================
(PID.TID 0000.0001) // Begin OBCS MONITOR field statistics
(PID.TID 0000.0001) // =======================================================
(PID.TID 0000.0001) %MON obc_N_vVel_max               =   1.4943682502491E-05
(PID.TID 0000.0001) %MON obc_N_vVel_min               =   1.4943682502491E-05
(PID.TID 0000.0001) %MON obc_N_vVel_mean              =   1.4943682502491E-05
(PID.TID 0000.0001) %MON obc_N_vVel_sd                =   2.2623395059477E-12
(PID.TID 0000.0001) %MON obc_N_vVel_Int               =   9.8628304516439E+02
(PID.TID 0000.0001) // =======================================================
(PID.TID 0000.0001) // End OBCS MONITOR field statistics
(PID.TID 0000.0001) // =======================================================
 cg2d: Sum(rhs),rhsMax =   4.50794687657264E+00  2.99963718610089E+02
(PID.TID 0000.0001)      cg2d_init_res =   1.08838432733106E-05
(PID.TID 0000.0001)      cg2d_iters(min,last) =      -1      84
(PID.TID 0000.0001)      cg2d_last_res =   9.84262519397033E-12
(PID.TID 0000.0001) // =======================================================
(PID.TID 0000.0001) // Begin MONITOR dynamic field statistics
(PID.TID 0000.0001) // =======================================================
(PID.TID 0000.0001) %MON time_tsnumber                =                  1440
(PID.TID 0000.0001) %MON time_secondsf                =   1.4400000000000E+05
(PID.TID 0000.0001) %MON dynstat_eta_max              =   5.8012213071316E+00
(PID.TID 0000.0001) %MON dynstat_eta_min              =  -1.4192974169775E+01
(PID.TID 0000.0001) %MON dynstat_eta_mean             =  -2.5041120525805E+00
(PID.TID 0000.0001) %MON dynstat_eta_sd               =   4.9501110773810E+00
(PID.TID 0000.0001) %MON dynstat_eta_del2             =   2.0716752906520E-01
(PID.TID 0000.0001) %MON dynstat_uvel_max             =   1.2785830823137E-02
(PID.TID 0000.0001) %MON dynstat_uvel_min             =  -5.7850237995256E-02
(PID.TID 0000.0001) %MON dynstat_uvel_mean            =  -1.0677082554591E-07
(PID.TID 0000.0001) %MON dynstat_uvel_sd              =   1.6771607388275E-03
(PID.TID 0000.0001) %MON dynstat_uvel_del2            =   2.5556540491094E-06
(PID.TID 0000.0001) %MON dynstat_vvel_max             =   3.7259776960269E-02
(PID.TID 0000.0001) %MON dynstat_vvel_min             =  -1.9870415525123E-02
(PID.TID 0000.0001) %MON dynstat_vvel_mean            =   1.5272060123753E-05
(PID.TID 0000.0001) %MON dynstat_vvel_sd              =   8.8555106343206E-04
(PID.TID 0000.0001) %MON dynstat_vvel_del2            =   1.8347966275465E-06
(PID.TID 0000.0001) %MON dynstat_wvel_max             =   2.0557359409444E-03
(PID.TID 0000.0001) %MON dynstat_wvel_min             =  -1.9960388025543E-03
(PID.TID 0000.0001) %MON dynstat_wvel_mean            =   7.4779837808339E-09
(PID.TID 0000.0001) %MON dynstat_wvel_sd              =   3.3151655960572E-05
(PID.TID 0000.0001) %MON dynstat_wvel_del2            =   1.3246751732502E-07
(PID.TID 0000.0001) %MON dynstat_theta_max            =   1.2000000000000E+00
(PID.TID 0000.0001) %MON dynstat_theta_min            =  -1.0000000000000E+00
(PID.TID 0000.0001) %MON dynstat_theta_mean           =   5.6827279739171E-01
(PID.TID 0000.0001) %MON dynstat_theta_sd             =   8.6813801919075E-01
(PID.TID 0000.0001) %MON dynstat_theta_del2           =   5.8047927264277E-06
(PID.TID 0000.0001) %MON dynstat_salt_max             =   3.4700000000000E+01
(PID.TID 0000.0001) %MON dynstat_salt_min             =   3.4000000000000E+01
(PID.TID 0000.0001) %MON dynstat_salt_mean            =   3.4498923173503E+01
(PID.TID 0000.0001) %MON dynstat_salt_sd              =   2.7619655071835E-01
(PID.TID 0000.0001) %MON dynstat_salt_del2            =   2.3004104046741E-06
(PID.TID 0000.0001) %MON advcfl_uvel_max              =   5.7850237995256E-03
(PID.TID 0000.0001) %MON advcfl_vvel_max              =   3.7259776960269E-03
(PID.TID 0000.0001) %MON advcfl_wvel_max              =   1.0278679704722E-02
(PID.TID 0000.0001) %MON advcfl_W_hf_max              =   1.0278679704722E-02
(PID.TID 0000.0001) %MON pe_b_mean                    =  -8.2967132761789E-01
(PID.TID 0000.0001) %MON ke_max                       =   1.4032733906971E-03
(PID.TID 0000.0001) %MON ke_mean                      =   1.7707522585970E-06
(PID.TID 0000.0001) %MON ke_vol                       =   4.2724655906876E+12
(PID.TID 0000.0001) // =======================================================
(PID.TID 0000.0001) // End MONITOR dynamic field statistics
(PID.TID 0000.0001) // =======================================================
(PID.TID 0000.0001) // =======================================================
(PID.TID 0000.0001) // Begin OBCS MONITOR field statistics
(PID.TID 0000.0001) // =======================================================
(PID.TID 0000.0001) %MON obc_N_vVel_max               =   1.4953368867162E-05
(PID.TID 0000.0001) %MON obc_N_vVel_min               =   1.4953368867162E-05
(PID.TID 0000.0001) %MON obc_N_vVel_mean              =   1.4953368867162E-05
(PID.TID 0000.0001) %MON obc_N_vVel_sd                =   1.4108165539700E-12
(PID.TID 0000.0001) %MON obc_N_vVel_Int               =   9.8692234523272E+02
(PID.TID 0000.0001) // =======================================================
(PID.TID 0000.0001) // End OBCS MONITOR field statistics
(PID.TID 0000.0001) // =======================================================
 cg2d: Sum(rhs),rhsMax =   4.50795062096857E+00  2.99963796034847E+02
(PID.TID 0000.0001)      cg2d_init_res =   1.08978383105599E-05
(PID.TID 0000.0001)      cg2d_iters(min,last) =      -1      84
(PID.TID 0000.0001)      cg2d_last_res =   9.84731155042858E-12
(PID.TID 0000.0001) // =======================================================
(PID.TID 0000.0001) // Begin MONITOR dynamic field statistics
(PID.TID 0000.0001) // =======================================================
(PID.TID 0000.0001) %MON time_tsnumber                =                  1441
(PID.TID 0000.0001) %MON time_secondsf                =   1.4410000000000E+05
(PID.TID 0000.0001) %MON dynstat_eta_max              =   5.8012516317117E+00
(PID.TID 0000.0001) %MON dynstat_eta_min              =  -1.4193004073626E+01
(PID.TID 0000.0001) %MON dynstat_eta_mean             =  -2.5041147788951E+00
(PID.TID 0000.0001) %MON dynstat_eta_sd               =   4.9501125788765E+00
(PID.TID 0000.0001) %MON dynstat_eta_del2             =   2.0716758398997E-01
(PID.TID 0000.0001) %MON dynstat_uvel_max             =   1.2814511601595E-02
(PID.TID 0000.0001) %MON dynstat_uvel_min             =  -5.7967066005657E-02
(PID.TID 0000.0001) %MON dynstat_uvel_mean            =  -1.0668653035713E-07
(PID.TID 0000.0001) %MON dynstat_uvel_sd              =   1.6808141973535E-03
(PID.TID 0000.0001) %MON dynstat_uvel_del2            =   2.5618533588218E-06
(PID.TID 0000.0001) %MON dynstat_vvel_max             =   3.7308473584688E-02
(PID.TID 0000.0001) %MON dynstat_vvel_min             =  -1.9917845487402E-02
(PID.TID 0000.0001) %MON dynstat_vvel_mean            =   1.5281458052454E-05
(PID.TID 0000.0001) %MON dynstat_vvel_sd              =   8.8726560854162E-04
(PID.TID 0000.0001) %MON dynstat_vvel_del2            =   1.8383805837334E-06
(PID.TID 0000.0001) %MON dynstat_wvel_max             =   2.0588801774127E-03
(PID.TID 0000.0001) %MON dynstat_wvel_min             =  -1.9992938987897E-03
(PID.TID 0000.0001) %MON dynstat_wvel_mean            =   7.4815922759006E-09
(PID.TID 0000.0001) %MON dynstat_wvel_sd              =   3.3223831020373E-05
(PID.TID 0000.0001) %MON dynstat_wvel_del2            =   1.3265833140390E-07
(PID.TID 0000.0001) %MON dynstat_theta_max            =   1.2000000000000E+00
(PID.TID 0000.0001) %MON dynstat_theta_min            =  -1.0000000000000E+00
(PID.TID 0000.0001) %MON dynstat_theta_mean           =   5.6827113781986E-01
(PID.TID 0000.0001) %MON dynstat_theta_sd             =   8.6813715625495E-01
(PID.TID 0000.0001) %MON dynstat_theta_del2           =   5.8156289605683E-06
(PID.TID 0000.0001) %MON dynstat_salt_max             =   3.4700000000000E+01
(PID.TID 0000.0001) %MON dynstat_salt_min             =   3.4000000000000E+01
(PID.TID 0000.0001) %MON dynstat_salt_mean            =   3.4498922509196E+01
(PID.TID 0000.0001) %MON dynstat_salt_sd              =   2.7619622108047E-01
(PID.TID 0000.0001) %MON dynstat_salt_del2            =   2.3047200776786E-06
(PID.TID 0000.0001) %MON advcfl_uvel_max              =   5.7967066005657E-03
(PID.TID 0000.0001) %MON advcfl_vvel_max              =   3.7308473584688E-03
(PID.TID 0000.0001) %MON advcfl_wvel_max              =   1.0294400887063E-02
(PID.TID 0000.0001) %MON advcfl_W_hf_max              =   1.0294400887063E-02
(PID.TID 0000.0001) %MON pe_b_mean                    =  -8.2967139304523E-01
(PID.TID 0000.0001) %MON ke_max                       =   1.4097242789939E-03
(PID.TID 0000.0001) %MON ke_mean                      =   1.7782846407880E-06
(PID.TID 0000.0001) %MON ke_vol                       =   4.2724655744077E+12
(PID.TID 0000.0001) // =======================================================
(PID.TID 0000.0001) // End MONITOR dynamic field statistics
(PID.TID 0000.0001) // =======================================================
(PID.TID 0000.0001) // =======================================================
(PID.TID 0000.0001) // Begin OBCS MONITOR field statistics
(PID.TID 0000.0001) // =======================================================
(PID.TID 0000.0001) %MON obc_N_vVel_max               =   1.4962168513906E-05
(PID.TID 0000.0001) %MON obc_N_vVel_min               =   1.4962168513906E-05
(PID.TID 0000.0001) %MON obc_N_vVel_mean              =   1.4962168513906E-05
(PID.TID 0000.0001) %MON obc_N_vVel_sd                =  -1.9490443183281E-23
(PID.TID 0000.0001) %MON obc_N_vVel_Int               =   9.8750312191780E+02
(PID.TID 0000.0001) // =======================================================
(PID.TID 0000.0001) // End OBCS MONITOR field statistics
(PID.TID 0000.0001) // =======================================================
 cg2d: Sum(rhs),rhsMax =   4.50795433757028E+00  2.99963873437864E+02
(PID.TID 0000.0001)      cg2d_init_res =   1.09112418562599E-05
(PID.TID 0000.0001)      cg2d_iters(min,last) =      -1      84
(PID.TID 0000.0001)      cg2d_last_res =   9.85114692996564E-12
(PID.TID 0000.0001) // =======================================================
(PID.TID 0000.0001) // Begin MONITOR dynamic field statistics
(PID.TID 0000.0001) // =======================================================
(PID.TID 0000.0001) %MON time_tsnumber                =                  1442
(PID.TID 0000.0001) %MON time_secondsf                =   1.4420000000000E+05
(PID.TID 0000.0001) %MON dynstat_eta_max              =   5.8012820446092E+00
(PID.TID 0000.0001) %MON dynstat_eta_min              =  -1.4193033984711E+01
(PID.TID 0000.0001) %MON dynstat_eta_mean             =  -2.5041174895900E+00
(PID.TID 0000.0001) %MON dynstat_eta_sd               =   4.9501140750480E+00
(PID.TID 0000.0001) %MON dynstat_eta_del2             =   2.0716763899284E-01
(PID.TID 0000.0001) %MON dynstat_uvel_max             =   1.2843236996277E-02
(PID.TID 0000.0001) %MON dynstat_uvel_min             =  -5.8083975302632E-02
(PID.TID 0000.0001) %MON dynstat_uvel_mean            =  -1.0659378677896E-07
(PID.TID 0000.0001) %MON dynstat_uvel_sd              =   1.6844740499507E-03
(PID.TID 0000.0001) %MON dynstat_uvel_del2            =   2.5680673193934E-06
(PID.TID 0000.0001) %MON dynstat_vvel_max             =   3.7357138205433E-02
(PID.TID 0000.0001) %MON dynstat_vvel_min             =  -1.9965363363545E-02
(PID.TID 0000.0001) %MON dynstat_vvel_mean            =   1.5289530410193E-05
(PID.TID 0000.0001) %MON dynstat_vvel_sd              =   8.8898375132919E-04
(PID.TID 0000.0001) %MON dynstat_vvel_del2            =   1.8419716527742E-06
(PID.TID 0000.0001) %MON dynstat_wvel_max             =   2.0620230781867E-03
(PID.TID 0000.0001) %MON dynstat_wvel_min             =  -2.0025495108586E-03
(PID.TID 0000.0001) %MON dynstat_wvel_mean            =   7.4822819791340E-09
(PID.TID 0000.0001) %MON dynstat_wvel_sd              =   3.3298013287353E-05
(PID.TID 0000.0001) %MON dynstat_wvel_del2            =   1.3285378828794E-07
(PID.TID 0000.0001) %MON dynstat_theta_max            =   1.2000000000000E+00
(PID.TID 0000.0001) %MON dynstat_theta_min            =  -1.0000000000000E+00
(PID.TID 0000.0001) %MON dynstat_theta_mean           =   5.6826947540362E-01
(PID.TID 0000.0001) %MON dynstat_theta_sd             =   8.6813629199536E-01
(PID.TID 0000.0001) %MON dynstat_theta_del2           =   5.8264789422072E-06
(PID.TID 0000.0001) %MON dynstat_salt_max             =   3.4700000000000E+01
(PID.TID 0000.0001) %MON dynstat_salt_min             =   3.4000000000000E+01
(PID.TID 0000.0001) %MON dynstat_salt_mean            =   3.4498921843746E+01
(PID.TID 0000.0001) %MON dynstat_salt_sd              =   2.7619589095737E-01
(PID.TID 0000.0001) %MON dynstat_salt_del2            =   2.3090355093229E-06
(PID.TID 0000.0001) %MON advcfl_uvel_max              =   5.8083975302632E-03
(PID.TID 0000.0001) %MON advcfl_vvel_max              =   3.7357138205433E-03
(PID.TID 0000.0001) %MON advcfl_wvel_max              =   1.0310115390933E-02
(PID.TID 0000.0001) %MON advcfl_W_hf_max              =   1.0310115390933E-02
(PID.TID 0000.0001) %MON pe_b_mean                    =  -8.2967145196594E-01
(PID.TID 0000.0001) %MON ke_max                       =   1.4161986906386E-03
(PID.TID 0000.0001) %MON ke_mean                      =   1.7858467808884E-06
(PID.TID 0000.0001) %MON ke_vol                       =   4.2724655582134E+12
(PID.TID 0000.0001) // =======================================================
(PID.TID 0000.0001) // End MONITOR dynamic field statistics
(PID.TID 0000.0001) // =======================================================
(PID.TID 0000.0001) // =======================================================
(PID.TID 0000.0001) // Begin OBCS MONITOR field statistics
(PID.TID 0000.0001) // =======================================================
(PID.TID 0000.0001) %MON obc_N_vVel_max               =   1.4969916987886E-05
(PID.TID 0000.0001) %MON obc_N_vVel_min               =   1.4969916987886E-05
(PID.TID 0000.0001) %MON obc_N_vVel_mean              =   1.4969916987886E-05
(PID.TID 0000.0001) %MON obc_N_vVel_sd                =   2.6564797384590E-12
(PID.TID 0000.0001) %MON obc_N_vVel_Int               =   9.8801452120046E+02
(PID.TID 0000.0001) // =======================================================
(PID.TID 0000.0001) // End OBCS MONITOR field statistics
(PID.TID 0000.0001) // =======================================================
 cg2d: Sum(rhs),rhsMax =   4.50795802427849E+00  2.99963950796025E+02
(PID.TID 0000.0001)      cg2d_init_res =   1.09241006333170E-05
(PID.TID 0000.0001)      cg2d_iters(min,last) =      -1      84
(PID.TID 0000.0001)      cg2d_last_res =   9.85424115294742E-12
(PID.TID 0000.0001) // =======================================================
(PID.TID 0000.0001) // Begin MONITOR dynamic field statistics
(PID.TID 0000.0001) // =======================================================
(PID.TID 0000.0001) %MON time_tsnumber                =                  1443
(PID.TID 0000.0001) %MON time_secondsf                =   1.4430000000000E+05
(PID.TID 0000.0001) %MON dynstat_eta_max              =   5.8013125489082E+00
(PID.TID 0000.0001) %MON dynstat_eta_min              =  -1.4193063901259E+01
(PID.TID 0000.0001) %MON dynstat_eta_mean             =  -2.5041201833060E+00
(PID.TID 0000.0001) %MON dynstat_eta_sd               =   4.9501155653413E+00
(PID.TID 0000.0001) %MON dynstat_eta_del2             =   2.0716769407351E-01
(PID.TID 0000.0001) %MON dynstat_uvel_max             =   1.2872007059014E-02
(PID.TID 0000.0001) %MON dynstat_uvel_min             =  -5.8200965046263E-02
(PID.TID 0000.0001) %MON dynstat_uvel_mean            =  -1.0649403257409E-07
(PID.TID 0000.0001) %MON dynstat_uvel_sd              =   1.6881402985797E-03
(PID.TID 0000.0001) %MON dynstat_uvel_del2            =   2.5742959567766E-06
(PID.TID 0000.0001) %MON dynstat_vvel_max             =   3.7405770578011E-02
(PID.TID 0000.0001) %MON dynstat_vvel_min             =  -2.0012969124707E-02
(PID.TID 0000.0001) %MON dynstat_vvel_mean            =   1.5296134734321E-05
(PID.TID 0000.0001) %MON dynstat_vvel_sd              =   8.9070532922175E-04
(PID.TID 0000.0001) %MON dynstat_vvel_del2            =   1.8455699595589E-06
(PID.TID 0000.0001) %MON dynstat_wvel_max             =   2.0651646223002E-03
(PID.TID 0000.0001) %MON dynstat_wvel_min             =  -2.0058056201411E-03
(PID.TID 0000.0001) %MON dynstat_wvel_mean            =   7.4800963722729E-09
(PID.TID 0000.0001) %MON dynstat_wvel_sd              =   3.3373947313902E-05
(PID.TID 0000.0001) %MON dynstat_wvel_del2            =   1.3305511496965E-07
(PID.TID 0000.0001) %MON dynstat_theta_max            =   1.2000000000000E+00
(PID.TID 0000.0001) %MON dynstat_theta_min            =  -1.0000000000000E+00
(PID.TID 0000.0001) %MON dynstat_theta_mean           =   5.6826781013607E-01
(PID.TID 0000.0001) %MON dynstat_theta_sd             =   8.6813542641504E-01
(PID.TID 0000.0001) %MON dynstat_theta_del2           =   5.8373425803676E-06
(PID.TID 0000.0001) %MON dynstat_salt_max             =   3.4700000000000E+01
(PID.TID 0000.0001) %MON dynstat_salt_min             =   3.4000000000000E+01
(PID.TID 0000.0001) %MON dynstat_salt_mean            =   3.4498921177150E+01
(PID.TID 0000.0001) %MON dynstat_salt_sd              =   2.7619556035009E-01
(PID.TID 0000.0001) %MON dynstat_salt_del2            =   2.3133567367183E-06
(PID.TID 0000.0001) %MON advcfl_uvel_max              =   5.8200965046263E-03
(PID.TID 0000.0001) %MON advcfl_vvel_max              =   3.7405770578011E-03
(PID.TID 0000.0001) %MON advcfl_wvel_max              =   1.0325823111501E-02
(PID.TID 0000.0001) %MON advcfl_W_hf_max              =   1.0325823111501E-02
(PID.TID 0000.0001) %MON pe_b_mean                    =  -8.2967150398800E-01
(PID.TID 0000.0001) %MON ke_max                       =   1.4226966666901E-03
(PID.TID 0000.0001) %MON ke_mean                      =   1.7934386225118E-06
(PID.TID 0000.0001) %MON ke_vol                       =   4.2724655421118E+12
(PID.TID 0000.0001) // =======================================================
(PID.TID 0000.0001) // End MONITOR dynamic field statistics
(PID.TID 0000.0001) // =======================================================
(PID.TID 0000.0001) // =======================================================
(PID.TID 0000.0001) // Begin OBCS MONITOR field statistics
(PID.TID 0000.0001) // =======================================================
(PID.TID 0000.0001) %MON obc_N_vVel_max               =   1.4976473256645E-05
(PID.TID 0000.0001) %MON obc_N_vVel_min               =   1.4976473256645E-05
(PID.TID 0000.0001) %MON obc_N_vVel_mean              =   1.4976473256645E-05
(PID.TID 0000.0001) %MON obc_N_vVel_sd                =   3.9184869682718E-12
(PID.TID 0000.0001) %MON obc_N_vVel_Int               =   9.8844723493854E+02
(PID.TID 0000.0001) // =======================================================
(PID.TID 0000.0001) // End OBCS MONITOR field statistics
(PID.TID 0000.0001) // =======================================================
 cg2d: Sum(rhs),rhsMax =   4.50796167874515E+00  2.99964028087530E+02
(PID.TID 0000.0001)      cg2d_init_res =   1.09364648378917E-05
(PID.TID 0000.0001)      cg2d_iters(min,last) =      -1      84
(PID.TID 0000.0001)      cg2d_last_res =   9.85671903877867E-12
(PID.TID 0000.0001) // =======================================================
(PID.TID 0000.0001) // Begin MONITOR dynamic field statistics
(PID.TID 0000.0001) // =======================================================
(PID.TID 0000.0001) %MON time_tsnumber                =                  1444
(PID.TID 0000.0001) %MON time_secondsf                =   1.4440000000000E+05
(PID.TID 0000.0001) %MON dynstat_eta_max              =   5.8013431478836E+00
(PID.TID 0000.0001) %MON dynstat_eta_min              =  -1.4193093821444E+01
(PID.TID 0000.0001) %MON dynstat_eta_mean             =  -2.5041228585567E+00
(PID.TID 0000.0001) %MON dynstat_eta_sd               =   4.9501170491867E+00
(PID.TID 0000.0001) %MON dynstat_eta_del2             =   2.0716774923166E-01
(PID.TID 0000.0001) %MON dynstat_uvel_max             =   1.2900821839487E-02
(PID.TID 0000.0001) %MON dynstat_uvel_min             =  -5.8318034395246E-02
(PID.TID 0000.0001) %MON dynstat_uvel_mean            =  -1.0638883989210E-07
(PID.TID 0000.0001) %MON dynstat_uvel_sd              =   1.6918129454941E-03
(PID.TID 0000.0001) %MON dynstat_uvel_del2            =   2.5805392980057E-06
(PID.TID 0000.0001) %MON dynstat_vvel_max             =   3.7454370464941E-02
(PID.TID 0000.0001) %MON dynstat_vvel_min             =  -2.0060662732817E-02
(PID.TID 0000.0001) %MON dynstat_vvel_mean            =   1.5301160442806E-05
(PID.TID 0000.0001) %MON dynstat_vvel_sd              =   8.9243016261545E-04
(PID.TID 0000.0001) %MON dynstat_vvel_del2            =   1.8491755755788E-06
(PID.TID 0000.0001) %MON dynstat_wvel_max             =   2.0683047887864E-03
(PID.TID 0000.0001) %MON dynstat_wvel_min             =  -2.0090622080809E-03
(PID.TID 0000.0001) %MON dynstat_wvel_mean            =   7.4751380550474E-09
(PID.TID 0000.0001) %MON dynstat_wvel_sd              =   3.3451318664776E-05
(PID.TID 0000.0001) %MON dynstat_wvel_del2            =   1.3326334564239E-07
(PID.TID 0000.0001) %MON dynstat_theta_max            =   1.2000000000000E+00
(PID.TID 0000.0001) %MON dynstat_theta_min            =  -1.0000000000000E+00
(PID.TID 0000.0001) %MON dynstat_theta_mean           =   5.6826614201024E-01
(PID.TID 0000.0001) %MON dynstat_theta_sd             =   8.6813455951534E-01
(PID.TID 0000.0001) %MON dynstat_theta_del2           =   5.8482200566990E-06
(PID.TID 0000.0001) %MON dynstat_salt_max             =   3.4700000000000E+01
(PID.TID 0000.0001) %MON dynstat_salt_min             =   3.4000000000000E+01
(PID.TID 0000.0001) %MON dynstat_salt_mean            =   3.4498920509407E+01
(PID.TID 0000.0001) %MON dynstat_salt_sd              =   2.7619522925929E-01
(PID.TID 0000.0001) %MON dynstat_salt_del2            =   2.3176838188421E-06
(PID.TID 0000.0001) %MON advcfl_uvel_max              =   5.8318034395246E-03
(PID.TID 0000.0001) %MON advcfl_vvel_max              =   3.7454370464941E-03
(PID.TID 0000.0001) %MON advcfl_wvel_max              =   1.0341523943932E-02
(PID.TID 0000.0001) %MON advcfl_W_hf_max              =   1.0341523943932E-02
(PID.TID 0000.0001) %MON pe_b_mean                    =  -8.2967154869386E-01
(PID.TID 0000.0001) %MON ke_max                       =   1.4292182481591E-03
(PID.TID 0000.0001) %MON ke_mean                      =   1.8010600941122E-06
(PID.TID 0000.0001) %MON ke_vol                       =   4.2724655261112E+12
(PID.TID 0000.0001) // =======================================================
(PID.TID 0000.0001) // End MONITOR dynamic field statistics
(PID.TID 0000.0001) // =======================================================
(PID.TID 0000.0001) // =======================================================
(PID.TID 0000.0001) // Begin OBCS MONITOR field statistics
(PID.TID 0000.0001) // =======================================================
(PID.TID 0000.0001) %MON obc_N_vVel_max               =   1.4981722434664E-05
(PID.TID 0000.0001) %MON obc_N_vVel_min               =   1.4981722434664E-05
(PID.TID 0000.0001) %MON obc_N_vVel_mean              =   1.4981722434664E-05
(PID.TID 0000.0001) %MON obc_N_vVel_sd                =   3.1546817184589E-12
(PID.TID 0000.0001) %MON obc_N_vVel_Int               =   9.8879368068783E+02
(PID.TID 0000.0001) // =======================================================
(PID.TID 0000.0001) // End OBCS MONITOR field statistics
(PID.TID 0000.0001) // =======================================================
 cg2d: Sum(rhs),rhsMax =   4.50796529842125E+00  2.99964105292343E+02
(PID.TID 0000.0001)      cg2d_init_res =   1.09483935282408E-05
(PID.TID 0000.0001)      cg2d_iters(min,last) =      -1      84
(PID.TID 0000.0001)      cg2d_last_res =   9.85871321167964E-12
(PID.TID 0000.0001) // =======================================================
(PID.TID 0000.0001) // Begin MONITOR dynamic field statistics
(PID.TID 0000.0001) // =======================================================
(PID.TID 0000.0001) %MON time_tsnumber                =                  1445
(PID.TID 0000.0001) %MON time_secondsf                =   1.4450000000000E+05
(PID.TID 0000.0001) %MON dynstat_eta_max              =   5.8013738449420E+00
(PID.TID 0000.0001) %MON dynstat_eta_min              =  -1.4193123743398E+01
(PID.TID 0000.0001) %MON dynstat_eta_mean             =  -2.5041255137590E+00
(PID.TID 0000.0001) %MON dynstat_eta_sd               =   4.9501185260112E+00
(PID.TID 0000.0001) %MON dynstat_eta_del2             =   2.0716780446708E-01
(PID.TID 0000.0001) %MON dynstat_uvel_max             =   1.2929681384918E-02
(PID.TID 0000.0001) %MON dynstat_uvel_min             =  -5.8435182506992E-02
(PID.TID 0000.0001) %MON dynstat_uvel_mean            =  -1.0627988235581E-07
(PID.TID 0000.0001) %MON dynstat_uvel_sd              =   1.6954919932123E-03
(PID.TID 0000.0001) %MON dynstat_uvel_del2            =   2.5867973712710E-06
(PID.TID 0000.0001) %MON dynstat_vvel_max             =   3.7502937636192E-02
(PID.TID 0000.0001) %MON dynstat_vvel_min             =  -2.0108444140474E-02
(PID.TID 0000.0001) %MON dynstat_vvel_mean            =   1.5304530872415E-05
(PID.TID 0000.0001) %MON dynstat_vvel_sd              =   8.9415805841306E-04
(PID.TID 0000.0001) %MON dynstat_vvel_del2            =   1.8527884999438E-06
(PID.TID 0000.0001) %MON dynstat_wvel_max             =   2.0714435566847E-03
(PID.TID 0000.0001) %MON dynstat_wvel_min             =  -2.0123192560947E-03
(PID.TID 0000.0001) %MON dynstat_wvel_mean            =   7.4675671033028E-09
(PID.TID 0000.0001) %MON dynstat_wvel_sd              =   3.3529751873245E-05
(PID.TID 0000.0001) %MON dynstat_wvel_del2            =   1.3347921200643E-07
(PID.TID 0000.0001) %MON dynstat_theta_max            =   1.2000000000000E+00
(PID.TID 0000.0001) %MON dynstat_theta_min            =  -1.0000000000000E+00
(PID.TID 0000.0001) %MON dynstat_theta_mean           =   5.6826447101899E-01
(PID.TID 0000.0001) %MON dynstat_theta_sd             =   8.6813369129568E-01
(PID.TID 0000.0001) %MON dynstat_theta_del2           =   5.8591116555580E-06
(PID.TID 0000.0001) %MON dynstat_salt_max             =   3.4700000000000E+01
(PID.TID 0000.0001) %MON dynstat_salt_min             =   3.4000000000000E+01
(PID.TID 0000.0001) %MON dynstat_salt_mean            =   3.4498919840512E+01
(PID.TID 0000.0001) %MON dynstat_salt_sd              =   2.7619489768477E-01
(PID.TID 0000.0001) %MON dynstat_salt_del2            =   2.3220168709079E-06
(PID.TID 0000.0001) %MON advcfl_uvel_max              =   5.8435182506992E-03
(PID.TID 0000.0001) %MON advcfl_vvel_max              =   3.7502937636192E-03
(PID.TID 0000.0001) %MON advcfl_wvel_max              =   1.0357217783423E-02
(PID.TID 0000.0001) %MON advcfl_W_hf_max              =   1.0357217783423E-02
(PID.TID 0000.0001) %MON pe_b_mean                    =  -8.2967158564890E-01
(PID.TID 0000.0001) %MON ke_max                       =   1.4357634760078E-03
(PID.TID 0000.0001) %MON ke_mean                      =   1.8087111119882E-06
(PID.TID 0000.0001) %MON ke_vol                       =   4.2724655102202E+12
(PID.TID 0000.0001) // =======================================================
(PID.TID 0000.0001) // End MONITOR dynamic field statistics
(PID.TID 0000.0001) // =======================================================
(PID.TID 0000.0001) // =======================================================
(PID.TID 0000.0001) // Begin OBCS MONITOR field statistics
(PID.TID 0000.0001) // =======================================================
(PID.TID 0000.0001) %MON obc_N_vVel_max               =   1.4985577912639E-05
(PID.TID 0000.0001) %MON obc_N_vVel_min               =   1.4985577912639E-05
(PID.TID 0000.0001) %MON obc_N_vVel_mean              =   1.4985577912639E-05
(PID.TID 0000.0001) %MON obc_N_vVel_sd                =  -7.6514206661155E-24
(PID.TID 0000.0001) %MON obc_N_vVel_Int               =   9.8904814223418E+02
(PID.TID 0000.0001) // =======================================================
(PID.TID 0000.0001) // End OBCS MONITOR field statistics
(PID.TID 0000.0001) // =======================================================
 cg2d: Sum(rhs),rhsMax =   4.50796888061331E+00  2.99964182392570E+02
(PID.TID 0000.0001)      cg2d_init_res =   1.09599652147295E-05
(PID.TID 0000.0001)      cg2d_iters(min,last) =      -1      84
(PID.TID 0000.0001)      cg2d_last_res =   9.86036523216848E-12
(PID.TID 0000.0001) // =======================================================
(PID.TID 0000.0001) // Begin MONITOR dynamic field statistics
(PID.TID 0000.0001) // =======================================================
(PID.TID 0000.0001) %MON time_tsnumber                =                  1446
(PID.TID 0000.0001) %MON time_secondsf                =   1.4460000000000E+05
(PID.TID 0000.0001) %MON dynstat_eta_max              =   5.8014046435468E+00
(PID.TID 0000.0001) %MON dynstat_eta_min              =  -1.4193153665270E+01
(PID.TID 0000.0001) %MON dynstat_eta_mean             =  -2.5041281472673E+00
(PID.TID 0000.0001) %MON dynstat_eta_sd               =   4.9501199952469E+00
(PID.TID 0000.0001) %MON dynstat_eta_del2             =   2.0716785977949E-01
(PID.TID 0000.0001) %MON dynstat_uvel_max             =   1.2958585740371E-02
(PID.TID 0000.0001) %MON dynstat_uvel_min             =  -5.8552408537684E-02
(PID.TID 0000.0001) %MON dynstat_uvel_mean            =  -1.0616889914258E-07
(PID.TID 0000.0001) %MON dynstat_uvel_sd              =   1.6991774444603E-03
(PID.TID 0000.0001) %MON dynstat_uvel_del2            =   2.5930702054238E-06
(PID.TID 0000.0001) %MON dynstat_vvel_max             =   3.7551471869444E-02
(PID.TID 0000.0001) %MON dynstat_vvel_min             =  -2.0156313290585E-02
(PID.TID 0000.0001) %MON dynstat_vvel_mean            =   1.5306204598401E-05
(PID.TID 0000.0001) %MON dynstat_vvel_sd              =   8.9588881420495E-04
(PID.TID 0000.0001) %MON dynstat_vvel_del2            =   1.8564086447336E-06
(PID.TID 0000.0001) %MON dynstat_wvel_max             =   2.0745809052847E-03
(PID.TID 0000.0001) %MON dynstat_wvel_min             =  -2.0155767454253E-03
(PID.TID 0000.0001) %MON dynstat_wvel_mean            =   7.4575962463825E-09
(PID.TID 0000.0001) %MON dynstat_wvel_sd              =   3.3608811817468E-05
(PID.TID 0000.0001) %MON dynstat_wvel_del2            =   1.3370305349554E-07
(PID.TID 0000.0001) %MON dynstat_theta_max            =   1.2000000000000E+00
(PID.TID 0000.0001) %MON dynstat_theta_min            =  -1.0000000000000E+00
(PID.TID 0000.0001) %MON dynstat_theta_mean           =   5.6826279715521E-01
(PID.TID 0000.0001) %MON dynstat_theta_sd             =   8.6813282175482E-01
(PID.TID 0000.0001) %MON dynstat_theta_del2           =   5.8700177812252E-06
(PID.TID 0000.0001) %MON dynstat_salt_max             =   3.4700000000000E+01
(PID.TID 0000.0001) %MON dynstat_salt_min             =   3.4000000000000E+01
(PID.TID 0000.0001) %MON dynstat_salt_mean            =   3.4498919170463E+01
(PID.TID 0000.0001) %MON dynstat_salt_sd              =   2.7619456562628E-01
(PID.TID 0000.0001) %MON dynstat_salt_del2            =   2.3263559820849E-06
(PID.TID 0000.0001) %MON advcfl_uvel_max              =   5.8552408537684E-03
(PID.TID 0000.0001) %MON advcfl_vvel_max              =   3.7551471869444E-03
(PID.TID 0000.0001) %MON advcfl_wvel_max              =   1.0372904526423E-02
(PID.TID 0000.0001) %MON advcfl_W_hf_max              =   1.0372904526423E-02
(PID.TID 0000.0001) %MON pe_b_mean                    =  -8.2967161441060E-01
(PID.TID 0000.0001) %MON ke_max                       =   1.4423323911468E-03
(PID.TID 0000.0001) %MON ke_mean                      =   1.8163915838359E-06
(PID.TID 0000.0001) %MON ke_vol                       =   4.2724654944483E+12
(PID.TID 0000.0001) // =======================================================
(PID.TID 0000.0001) // End MONITOR dynamic field statistics
(PID.TID 0000.0001) // =======================================================
(PID.TID 0000.0001) // =======================================================
(PID.TID 0000.0001) // Begin OBCS MONITOR field statistics
(PID.TID 0000.0001) // =======================================================
(PID.TID 0000.0001) %MON obc_N_vVel_max               =   1.4987982999776E-05
(PID.TID 0000.0001) %MON obc_N_vVel_min               =   1.4987982999775E-05
(PID.TID 0000.0001) %MON obc_N_vVel_mean              =   1.4987982999776E-05
(PID.TID 0000.0001) %MON obc_N_vVel_sd                =   6.4310987107687E-13
(PID.TID 0000.0001) %MON obc_N_vVel_Int               =   9.8920687798520E+02
(PID.TID 0000.0001) // =======================================================
(PID.TID 0000.0001) // End OBCS MONITOR field statistics
(PID.TID 0000.0001) // =======================================================
 cg2d: Sum(rhs),rhsMax =   4.50797242253814E+00  2.99964259372871E+02
(PID.TID 0000.0001)      cg2d_init_res =   1.09712356384843E-05
(PID.TID 0000.0001)      cg2d_iters(min,last) =      -1      84
(PID.TID 0000.0001)      cg2d_last_res =   9.86185505393543E-12
(PID.TID 0000.0001) // =======================================================
(PID.TID 0000.0001) // Begin MONITOR dynamic field statistics
(PID.TID 0000.0001) // =======================================================
(PID.TID 0000.0001) %MON time_tsnumber                =                  1447
(PID.TID 0000.0001) %MON time_secondsf                =   1.4470000000000E+05
(PID.TID 0000.0001) %MON dynstat_eta_max              =   5.8014355471522E+00
(PID.TID 0000.0001) %MON dynstat_eta_min              =  -1.4193183585259E+01
(PID.TID 0000.0001) %MON dynstat_eta_mean             =  -2.5041307574074E+00
(PID.TID 0000.0001) %MON dynstat_eta_sd               =   4.9501214563491E+00
(PID.TID 0000.0001) %MON dynstat_eta_del2             =   2.0716791516882E-01
(PID.TID 0000.0001) %MON dynstat_uvel_max             =   1.2987534948266E-02
(PID.TID 0000.0001) %MON dynstat_uvel_min             =  -5.8669711642298E-02
(PID.TID 0000.0001) %MON dynstat_uvel_mean            =  -1.0605766089744E-07
(PID.TID 0000.0001) %MON dynstat_uvel_sd              =   1.7028693021627E-03
(PID.TID 0000.0001) %MON dynstat_uvel_del2            =   2.5993578309073E-06
(PID.TID 0000.0001) %MON dynstat_vvel_max             =   3.7599972950101E-02
(PID.TID 0000.0001) %MON dynstat_vvel_min             =  -2.0204270116214E-02
(PID.TID 0000.0001) %MON dynstat_vvel_mean            =   1.5306175991453E-05
(PID.TID 0000.0001) %MON dynstat_vvel_sd              =   8.9762222307314E-04
(PID.TID 0000.0001) %MON dynstat_vvel_del2            =   1.8600358299943E-06
(PID.TID 0000.0001) %MON dynstat_wvel_max             =   2.0777168140877E-03
(PID.TID 0000.0001) %MON dynstat_wvel_min             =  -2.0188346574069E-03
(PID.TID 0000.0001) %MON dynstat_wvel_mean            =   7.4454863714665E-09
(PID.TID 0000.0001) %MON dynstat_wvel_sd              =   3.3688009223405E-05
(PID.TID 0000.0001) %MON dynstat_wvel_del2            =   1.3393475630654E-07
(PID.TID 0000.0001) %MON dynstat_theta_max            =   1.2000000000000E+00
(PID.TID 0000.0001) %MON dynstat_theta_min            =  -1.0000000000000E+00
(PID.TID 0000.0001) %MON dynstat_theta_mean           =   5.6826112041179E-01
(PID.TID 0000.0001) %MON dynstat_theta_sd             =   8.6813195089136E-01
(PID.TID 0000.0001) %MON dynstat_theta_del2           =   5.8809389485799E-06
(PID.TID 0000.0001) %MON dynstat_salt_max             =   3.4700000000000E+01
(PID.TID 0000.0001) %MON dynstat_salt_min             =   3.4000000000000E+01
(PID.TID 0000.0001) %MON dynstat_salt_mean            =   3.4498918499259E+01
(PID.TID 0000.0001) %MON dynstat_salt_sd              =   2.7619423308305E-01
(PID.TID 0000.0001) %MON dynstat_salt_del2            =   2.3307012593775E-06
(PID.TID 0000.0001) %MON advcfl_uvel_max              =   5.8669711642298E-03
(PID.TID 0000.0001) %MON advcfl_vvel_max              =   3.7599972950101E-03
(PID.TID 0000.0001) %MON advcfl_wvel_max              =   1.0388584070438E-02
(PID.TID 0000.0001) %MON advcfl_W_hf_max              =   1.0388584070438E-02
(PID.TID 0000.0001) %MON pe_b_mean                    =  -8.2967163453762E-01
(PID.TID 0000.0001) %MON ke_max                       =   1.4489250344321E-03
(PID.TID 0000.0001) %MON ke_mean                      =   1.8241014129728E-06
(PID.TID 0000.0001) %MON ke_vol                       =   4.2724654788052E+12
(PID.TID 0000.0001) // =======================================================
(PID.TID 0000.0001) // End MONITOR dynamic field statistics
(PID.TID 0000.0001) // =======================================================
(PID.TID 0000.0001) // =======================================================
(PID.TID 0000.0001) // Begin OBCS MONITOR field statistics
(PID.TID 0000.0001) // =======================================================
(PID.TID 0000.0001) %MON obc_N_vVel_max               =   1.4988911760098E-05
(PID.TID 0000.0001) %MON obc_N_vVel_min               =   1.4988911760098E-05
(PID.TID 0000.0001) %MON obc_N_vVel_mean              =   1.4988911760098E-05
(PID.TID 0000.0001) %MON obc_N_vVel_sd                =  -2.3264454728054E-23
(PID.TID 0000.0001) %MON obc_N_vVel_Int               =   9.8926817616650E+02
(PID.TID 0000.0001) // =======================================================
(PID.TID 0000.0001) // End OBCS MONITOR field statistics
(PID.TID 0000.0001) // =======================================================
 cg2d: Sum(rhs),rhsMax =   4.50797592138108E+00  2.99964336220691E+02
(PID.TID 0000.0001)      cg2d_init_res =   1.09822935288913E-05
(PID.TID 0000.0001)      cg2d_iters(min,last) =      -1      84
(PID.TID 0000.0001)      cg2d_last_res =   9.86333014256622E-12
(PID.TID 0000.0001) // =======================================================
(PID.TID 0000.0001) // Begin MONITOR dynamic field statistics
(PID.TID 0000.0001) // =======================================================
(PID.TID 0000.0001) %MON time_tsnumber                =                  1448
(PID.TID 0000.0001) %MON time_secondsf                =   1.4480000000000E+05
(PID.TID 0000.0001) %MON dynstat_eta_max              =   5.8014665591371E+00
(PID.TID 0000.0001) %MON dynstat_eta_min              =  -1.4193213501633E+01
(PID.TID 0000.0001) %MON dynstat_eta_mean             =  -2.5041333425110E+00
(PID.TID 0000.0001) %MON dynstat_eta_sd               =   4.9501229088017E+00
(PID.TID 0000.0001) %MON dynstat_eta_del2             =   2.0716797063497E-01
(PID.TID 0000.0001) %MON dynstat_uvel_max             =   1.3016529047967E-02
(PID.TID 0000.0001) %MON dynstat_uvel_min             =  -5.8787090974870E-02
(PID.TID 0000.0001) %MON dynstat_uvel_mean            =  -1.0594793127280E-07
(PID.TID 0000.0001) %MON dynstat_uvel_sd              =   1.7065675693676E-03
(PID.TID 0000.0001) %MON dynstat_uvel_del2            =   2.6056602795111E-06
(PID.TID 0000.0001) %MON dynstat_vvel_max             =   3.7648440671384E-02
(PID.TID 0000.0001) %MON dynstat_vvel_min             =  -2.0252314540889E-02
(PID.TID 0000.0001) %MON dynstat_vvel_mean            =   1.5304475047147E-05
(PID.TID 0000.0001) %MON dynstat_vvel_sd              =   8.9935807893021E-04
(PID.TID 0000.0001) %MON dynstat_vvel_del2            =   1.8636697836314E-06
(PID.TID 0000.0001) %MON dynstat_wvel_max             =   2.0808512625623E-03
(PID.TID 0000.0001) %MON dynstat_wvel_min             =  -2.0220929733298E-03
(PID.TID 0000.0001) %MON dynstat_wvel_mean            =   7.4315416533527E-09
(PID.TID 0000.0001) %MON dynstat_wvel_sd              =   3.3766810524495E-05
(PID.TID 0000.0001) %MON dynstat_wvel_del2            =   1.3417372525112E-07
(PID.TID 0000.0001) %MON dynstat_theta_max            =   1.2000000000000E+00
(PID.TID 0000.0001) %MON dynstat_theta_min            =  -1.0000000000000E+00
(PID.TID 0000.0001) %MON dynstat_theta_mean           =   5.6825944078166E-01
(PID.TID 0000.0001) %MON dynstat_theta_sd             =   8.6813107870365E-01
(PID.TID 0000.0001) %MON dynstat_theta_del2           =   5.8918753987216E-06
(PID.TID 0000.0001) %MON dynstat_salt_max             =   3.4700000000000E+01
(PID.TID 0000.0001) %MON dynstat_salt_min             =   3.4000000000000E+01
(PID.TID 0000.0001) %MON dynstat_salt_mean            =   3.4498917826896E+01
(PID.TID 0000.0001) %MON dynstat_salt_sd              =   2.7619390005509E-01
(PID.TID 0000.0001) %MON dynstat_salt_del2            =   2.3350527795353E-06
(PID.TID 0000.0001) %MON advcfl_uvel_max              =   5.8787090974870E-03
(PID.TID 0000.0001) %MON advcfl_vvel_max              =   3.7648440671384E-03
(PID.TID 0000.0001) %MON advcfl_wvel_max              =   1.0404256312811E-02
(PID.TID 0000.0001) %MON advcfl_W_hf_max              =   1.0404256312811E-02
(PID.TID 0000.0001) %MON pe_b_mean                    =  -8.2967164559873E-01
(PID.TID 0000.0001) %MON ke_max                       =   1.4555414466970E-03
(PID.TID 0000.0001) %MON ke_mean                      =   1.8318405029709E-06
(PID.TID 0000.0001) %MON ke_vol                       =   4.2724654633010E+12
(PID.TID 0000.0001) // =======================================================
(PID.TID 0000.0001) // End MONITOR dynamic field statistics
(PID.TID 0000.0001) // =======================================================
(PID.TID 0000.0001) // =======================================================
(PID.TID 0000.0001) // Begin OBCS MONITOR field statistics
(PID.TID 0000.0001) // =======================================================
(PID.TID 0000.0001) %MON obc_N_vVel_max               =   1.4988369321148E-05
(PID.TID 0000.0001) %MON obc_N_vVel_min               =   1.4988369321148E-05
(PID.TID 0000.0001) %MON obc_N_vVel_mean              =   1.4988369321148E-05
(PID.TID 0000.0001) %MON obc_N_vVel_sd                =   2.8670729563870E-12
(PID.TID 0000.0001) %MON obc_N_vVel_Int               =   9.8923237519576E+02
(PID.TID 0000.0001) // =======================================================
(PID.TID 0000.0001) // End OBCS MONITOR field statistics
(PID.TID 0000.0001) // =======================================================
 cg2d: Sum(rhs),rhsMax =   4.50797937435329E+00  2.99964412926533E+02
(PID.TID 0000.0001)      cg2d_init_res =   1.09932179770220E-05
(PID.TID 0000.0001)      cg2d_iters(min,last) =      -1      84
(PID.TID 0000.0001)      cg2d_last_res =   9.86495404519230E-12
(PID.TID 0000.0001) // =======================================================
(PID.TID 0000.0001) // Begin MONITOR dynamic field statistics
(PID.TID 0000.0001) // =======================================================
(PID.TID 0000.0001) %MON time_tsnumber                =                  1449
(PID.TID 0000.0001) %MON time_secondsf                =   1.4490000000000E+05
(PID.TID 0000.0001) %MON dynstat_eta_max              =   5.8014976827170E+00
(PID.TID 0000.0001) %MON dynstat_eta_min              =  -1.4193243412790E+01
(PID.TID 0000.0001) %MON dynstat_eta_mean             =  -2.5041359009496E+00
(PID.TID 0000.0001) %MON dynstat_eta_sd               =   4.9501243521298E+00
(PID.TID 0000.0001) %MON dynstat_eta_del2             =   2.0716802617793E-01
(PID.TID 0000.0001) %MON dynstat_uvel_max             =   1.3045568076858E-02
(PID.TID 0000.0001) %MON dynstat_uvel_min             =  -5.8904545688114E-02
(PID.TID 0000.0001) %MON dynstat_uvel_mean            =  -1.0584142966813E-07
(PID.TID 0000.0001) %MON dynstat_uvel_sd              =   1.7102722491897E-03
(PID.TID 0000.0001) %MON dynstat_uvel_del2            =   2.6119775844539E-06
(PID.TID 0000.0001) %MON dynstat_vvel_max             =   3.7696874833990E-02
(PID.TID 0000.0001) %MON dynstat_vvel_min             =  -2.0300446478602E-02
(PID.TID 0000.0001) %MON dynstat_vvel_mean            =   1.5301166471103E-05
(PID.TID 0000.0001) %MON dynstat_vvel_sd              =   9.0109618228365E-04
(PID.TID 0000.0001) %MON dynstat_vvel_del2            =   1.8673101499641E-06
(PID.TID 0000.0001) %MON dynstat_wvel_max             =   2.0839842301373E-03
(PID.TID 0000.0001) %MON dynstat_wvel_min             =  -2.0253516744351E-03
(PID.TID 0000.0001) %MON dynstat_wvel_mean            =   7.4161017368727E-09
(PID.TID 0000.0001) %MON dynstat_wvel_sd              =   3.3844652167666E-05
(PID.TID 0000.0001) %MON dynstat_wvel_del2            =   1.3441889320423E-07
(PID.TID 0000.0001) %MON dynstat_theta_max            =   1.2000000000000E+00
(PID.TID 0000.0001) %MON dynstat_theta_min            =  -1.0000000000000E+00
(PID.TID 0000.0001) %MON dynstat_theta_mean           =   5.6825775825778E-01
(PID.TID 0000.0001) %MON dynstat_theta_sd             =   8.6813020519150E-01
(PID.TID 0000.0001) %MON dynstat_theta_del2           =   5.9028281874521E-06
(PID.TID 0000.0001) %MON dynstat_salt_max             =   3.4700000000000E+01
(PID.TID 0000.0001) %MON dynstat_salt_min             =   3.4000000000000E+01
(PID.TID 0000.0001) %MON dynstat_salt_mean            =   3.4498917153372E+01
(PID.TID 0000.0001) %MON dynstat_salt_sd              =   2.7619356654209E-01
(PID.TID 0000.0001) %MON dynstat_salt_del2            =   2.3394108417632E-06
(PID.TID 0000.0001) %MON advcfl_uvel_max              =   5.8904545688114E-03
(PID.TID 0000.0001) %MON advcfl_vvel_max              =   3.7696874833990E-03
(PID.TID 0000.0001) %MON advcfl_wvel_max              =   1.0419921150686E-02
(PID.TID 0000.0001) %MON advcfl_W_hf_max              =   1.0419921150686E-02
(PID.TID 0000.0001) %MON pe_b_mean                    =  -8.2967164718144E-01
(PID.TID 0000.0001) %MON ke_max                       =   1.4621816687502E-03
(PID.TID 0000.0001) %MON ke_mean                      =   1.8396087627457E-06
(PID.TID 0000.0001) %MON ke_vol                       =   4.2724654479455E+12
(PID.TID 0000.0001) // =======================================================
(PID.TID 0000.0001) // End MONITOR dynamic field statistics
(PID.TID 0000.0001) // =======================================================
(PID.TID 0000.0001) // =======================================================
(PID.TID 0000.0001) // Begin OBCS MONITOR field statistics
(PID.TID 0000.0001) // =======================================================
(PID.TID 0000.0001) %MON obc_N_vVel_max               =   1.4986391541031E-05
(PID.TID 0000.0001) %MON obc_N_vVel_min               =   1.4986391541031E-05
(PID.TID 0000.0001) %MON obc_N_vVel_mean              =   1.4986391541031E-05
(PID.TID 0000.0001) %MON obc_N_vVel_sd                =  -1.8223822870309E-23
(PID.TID 0000.0001) %MON obc_N_vVel_Int               =   9.8910184170808E+02
(PID.TID 0000.0001) // =======================================================
(PID.TID 0000.0001) // End OBCS MONITOR field statistics
(PID.TID 0000.0001) // =======================================================
 cg2d: Sum(rhs),rhsMax =   4.50798277874863E+00  2.99964489484122E+02
(PID.TID 0000.0001)      cg2d_init_res =   1.10040791671218E-05
(PID.TID 0000.0001)      cg2d_iters(min,last) =      -1      84
(PID.TID 0000.0001)      cg2d_last_res =   9.86686425947403E-12
(PID.TID 0000.0001) // =======================================================
(PID.TID 0000.0001) // Begin MONITOR dynamic field statistics
(PID.TID 0000.0001) // =======================================================
(PID.TID 0000.0001) %MON time_tsnumber                =                  1450
(PID.TID 0000.0001) %MON time_secondsf                =   1.4500000000000E+05
(PID.TID 0000.0001) %MON dynstat_eta_max              =   5.8015289209136E+00
(PID.TID 0000.0001) %MON dynstat_eta_min              =  -1.4193273317257E+01
(PID.TID 0000.0001) %MON dynstat_eta_mean             =  -2.5041384311677E+00
(PID.TID 0000.0001) %MON dynstat_eta_sd               =   4.9501257859073E+00
(PID.TID 0000.0001) %MON dynstat_eta_del2             =   2.0716808179767E-01
(PID.TID 0000.0001) %MON dynstat_uvel_max             =   1.3074652070125E-02
(PID.TID 0000.0001) %MON dynstat_uvel_min             =  -5.9022074931687E-02
(PID.TID 0000.0001) %MON dynstat_uvel_mean            =  -1.0573979410530E-07
(PID.TID 0000.0001) %MON dynstat_uvel_sd              =   1.7139833447880E-03
(PID.TID 0000.0001) %MON dynstat_uvel_del2            =   2.6183097790377E-06
(PID.TID 0000.0001) %MON dynstat_vvel_max             =   3.7745275245853E-02
(PID.TID 0000.0001) %MON dynstat_vvel_min             =  -2.0348665834176E-02
(PID.TID 0000.0001) %MON dynstat_vvel_mean            =   1.5296348020879E-05
(PID.TID 0000.0001) %MON dynstat_vvel_sd              =   9.0283634638942E-04
(PID.TID 0000.0001) %MON dynstat_vvel_del2            =   1.8709565050718E-06
(PID.TID 0000.0001) %MON dynstat_wvel_max             =   2.0871156962315E-03
(PID.TID 0000.0001) %MON dynstat_wvel_min             =  -2.0286107419706E-03
(PID.TID 0000.0001) %MON dynstat_wvel_mean            =   7.3995345774206E-09
(PID.TID 0000.0001) %MON dynstat_wvel_sd              =   3.3920958996383E-05
(PID.TID 0000.0001) %MON dynstat_wvel_del2            =   1.3466876889753E-07
(PID.TID 0000.0001) %MON dynstat_theta_max            =   1.2000000000000E+00
(PID.TID 0000.0001) %MON dynstat_theta_min            =  -1.0000000000000E+00
(PID.TID 0000.0001) %MON dynstat_theta_mean           =   5.6825607283317E-01
(PID.TID 0000.0001) %MON dynstat_theta_sd             =   8.6812933035481E-01
(PID.TID 0000.0001) %MON dynstat_theta_del2           =   5.9137980740419E-06
(PID.TID 0000.0001) %MON dynstat_salt_max             =   3.4700000000000E+01
(PID.TID 0000.0001) %MON dynstat_salt_min             =   3.4000000000000E+01
(PID.TID 0000.0001) %MON dynstat_salt_mean            =   3.4498916478684E+01
(PID.TID 0000.0001) %MON dynstat_salt_sd              =   2.7619323254423E-01
(PID.TID 0000.0001) %MON dynstat_salt_del2            =   2.3437756421921E-06
(PID.TID 0000.0001) %MON advcfl_uvel_max              =   5.9022074931687E-03
(PID.TID 0000.0001) %MON advcfl_vvel_max              =   3.7745275245853E-03
(PID.TID 0000.0001) %MON advcfl_wvel_max              =   1.0435578481157E-02
(PID.TID 0000.0001) %MON advcfl_W_hf_max              =   1.0435578481157E-02
(PID.TID 0000.0001) %MON pe_b_mean                    =  -8.2967163890028E-01
(PID.TID 0000.0001) %MON ke_max                       =   1.4688457411798E-03
(PID.TID 0000.0001) %MON ke_mean                      =   1.8474061120993E-06
(PID.TID 0000.0001) %MON ke_vol                       =   4.2724654327484E+12
(PID.TID 0000.0001) // =======================================================
(PID.TID 0000.0001) // End MONITOR dynamic field statistics
(PID.TID 0000.0001) // =======================================================
(PID.TID 0000.0001) // =======================================================
(PID.TID 0000.0001) // Begin OBCS MONITOR field statistics
(PID.TID 0000.0001) // =======================================================
(PID.TID 0000.0001) %MON obc_N_vVel_max               =   1.4983043963469E-05
(PID.TID 0000.0001) %MON obc_N_vVel_min               =   1.4983043963469E-05
(PID.TID 0000.0001) %MON obc_N_vVel_mean              =   1.4983043963469E-05
(PID.TID 0000.0001) %MON obc_N_vVel_sd                =   4.8152784494385E-12
(PID.TID 0000.0001) %MON obc_N_vVel_Int               =   9.8888090158895E+02
(PID.TID 0000.0001) // =======================================================
(PID.TID 0000.0001) // End OBCS MONITOR field statistics
(PID.TID 0000.0001) // =======================================================
 cg2d: Sum(rhs),rhsMax =   4.50798613199823E+00  2.99964565890508E+02
(PID.TID 0000.0001)      cg2d_init_res =   1.10149565426725E-05
(PID.TID 0000.0001)      cg2d_iters(min,last) =      -1      84
(PID.TID 0000.0001)      cg2d_last_res =   9.86923155174468E-12
(PID.TID 0000.0001) // =======================================================
(PID.TID 0000.0001) // Begin MONITOR dynamic field statistics
(PID.TID 0000.0001) // =======================================================
(PID.TID 0000.0001) %MON time_tsnumber                =                  1451
(PID.TID 0000.0001) %MON time_secondsf                =   1.4510000000000E+05
(PID.TID 0000.0001) %MON dynstat_eta_max              =   5.8015602764742E+00
(PID.TID 0000.0001) %MON dynstat_eta_min              =  -1.4193303213752E+01
(PID.TID 0000.0001) %MON dynstat_eta_mean             =  -2.5041409317135E+00
(PID.TID 0000.0001) %MON dynstat_eta_sd               =   4.9501272097672E+00
(PID.TID 0000.0001) %MON dynstat_eta_del2             =   2.0716813749424E-01
(PID.TID 0000.0001) %MON dynstat_uvel_max             =   1.3103781060991E-02
(PID.TID 0000.0001) %MON dynstat_uvel_min             =  -5.9139677853744E-02
(PID.TID 0000.0001) %MON dynstat_uvel_mean            =  -1.0564455660226E-07
(PID.TID 0000.0001) %MON dynstat_uvel_sd              =   1.7177008592819E-03
(PID.TID 0000.0001) %MON dynstat_uvel_del2            =   2.6246568972195E-06
(PID.TID 0000.0001) %MON dynstat_vvel_max             =   3.7793641721600E-02
(PID.TID 0000.0001) %MON dynstat_vvel_min             =  -2.0396972503505E-02
(PID.TID 0000.0001) %MON dynstat_vvel_mean            =   1.5290148213256E-05
(PID.TID 0000.0001) %MON dynstat_vvel_sd              =   9.0457840335115E-04
(PID.TID 0000.0001) %MON dynstat_vvel_del2            =   1.8746083795678E-06
(PID.TID 0000.0001) %MON dynstat_wvel_max             =   2.0902456402342E-03
(PID.TID 0000.0001) %MON dynstat_wvel_min             =  -2.0318701570968E-03
(PID.TID 0000.0001) %MON dynstat_wvel_mean            =   7.3822286399864E-09
(PID.TID 0000.0001) %MON dynstat_wvel_sd              =   3.3995165698582E-05
(PID.TID 0000.0001) %MON dynstat_wvel_del2            =   1.3492151508803E-07
(PID.TID 0000.0001) %MON dynstat_theta_max            =   1.2000000000000E+00
(PID.TID 0000.0001) %MON dynstat_theta_min            =  -1.0000000000000E+00
(PID.TID 0000.0001) %MON dynstat_theta_mean           =   5.6825438450095E-01
(PID.TID 0000.0001) %MON dynstat_theta_sd             =   8.6812845419584E-01
(PID.TID 0000.0001) %MON dynstat_theta_del2           =   5.9247858466881E-06
(PID.TID 0000.0001) %MON dynstat_salt_max             =   3.4700000000000E+01
(PID.TID 0000.0001) %MON dynstat_salt_min             =   3.4000000000000E+01
(PID.TID 0000.0001) %MON dynstat_salt_mean            =   3.4498915802829E+01
(PID.TID 0000.0001) %MON dynstat_salt_sd              =   2.7619289806221E-01
(PID.TID 0000.0001) %MON dynstat_salt_del2            =   2.3481473809712E-06
(PID.TID 0000.0001) %MON advcfl_uvel_max              =   5.9139677853744E-03
(PID.TID 0000.0001) %MON advcfl_vvel_max              =   3.7793641721600E-03
(PID.TID 0000.0001) %MON advcfl_wvel_max              =   1.0451228201171E-02
(PID.TID 0000.0001) %MON advcfl_W_hf_max              =   1.0451228201171E-02
(PID.TID 0000.0001) %MON pe_b_mean                    =  -8.2967162040432E-01
(PID.TID 0000.0001) %MON ke_max                       =   1.4755337044667E-03
(PID.TID 0000.0001) %MON ke_mean                      =   1.8552324871685E-06
(PID.TID 0000.0001) %MON ke_vol                       =   4.2724654177189E+12
(PID.TID 0000.0001) // =======================================================
(PID.TID 0000.0001) // End MONITOR dynamic field statistics
(PID.TID 0000.0001) // =======================================================
(PID.TID 0000.0001) // =======================================================
(PID.TID 0000.0001) // Begin OBCS MONITOR field statistics
(PID.TID 0000.0001) // =======================================================
(PID.TID 0000.0001) %MON obc_N_vVel_max               =   1.4978420232546E-05
(PID.TID 0000.0001) %MON obc_N_vVel_min               =   1.4978420232545E-05
(PID.TID 0000.0001) %MON obc_N_vVel_mean              =   1.4978420232546E-05
(PID.TID 0000.0001) %MON obc_N_vVel_sd                =  -2.2359725933074E-23
(PID.TID 0000.0001) %MON obc_N_vVel_Int               =   9.8857573534801E+02
(PID.TID 0000.0001) // =======================================================
(PID.TID 0000.0001) // End OBCS MONITOR field statistics
(PID.TID 0000.0001) // =======================================================
 cg2d: Sum(rhs),rhsMax =   4.50798943171988E+00  2.99964642146186E+02
(PID.TID 0000.0001)      cg2d_init_res =   1.10259212592096E-05
(PID.TID 0000.0001)      cg2d_iters(min,last) =      -1      84
(PID.TID 0000.0001)      cg2d_last_res =   9.87221072166146E-12
(PID.TID 0000.0001) // =======================================================
(PID.TID 0000.0001) // Begin MONITOR dynamic field statistics
(PID.TID 0000.0001) // =======================================================
(PID.TID 0000.0001) %MON time_tsnumber                =                  1452
(PID.TID 0000.0001) %MON time_secondsf                =   1.4520000000000E+05
(PID.TID 0000.0001) %MON dynstat_eta_max              =   5.8015917518222E+00
(PID.TID 0000.0001) %MON dynstat_eta_min              =  -1.4193333101183E+01
(PID.TID 0000.0001) %MON dynstat_eta_mean             =  -2.5041434012679E+00
(PID.TID 0000.0001) %MON dynstat_eta_sd               =   4.9501286234077E+00
(PID.TID 0000.0001) %MON dynstat_eta_del2             =   2.0716819326778E-01
(PID.TID 0000.0001) %MON dynstat_uvel_max             =   1.3132955080806E-02
(PID.TID 0000.0001) %MON dynstat_uvel_min             =  -5.9257353600601E-02
(PID.TID 0000.0001) %MON dynstat_uvel_mean            =  -1.0555711412485E-07
(PID.TID 0000.0001) %MON dynstat_uvel_sd              =   1.7214247956955E-03
(PID.TID 0000.0001) %MON dynstat_uvel_del2            =   2.6310189735534E-06
(PID.TID 0000.0001) %MON dynstat_vvel_max             =   3.7841974081986E-02
(PID.TID 0000.0001) %MON dynstat_vvel_min             =  -2.0445366374332E-02
(PID.TID 0000.0001) %MON dynstat_vvel_mean            =   1.5282723382864E-05
(PID.TID 0000.0001) %MON dynstat_vvel_sd              =   9.0632221010542E-04
(PID.TID 0000.0001) %MON dynstat_vvel_del2            =   1.8782652860360E-06
(PID.TID 0000.0001) %MON dynstat_wvel_max             =   2.0933740415456E-03
(PID.TID 0000.0001) %MON dynstat_wvel_min             =  -2.0351299008281E-03
(PID.TID 0000.0001) %MON dynstat_wvel_mean            =   7.3645847646219E-09
(PID.TID 0000.0001) %MON dynstat_wvel_sd              =   3.4066740478434E-05
(PID.TID 0000.0001) %MON dynstat_wvel_del2            =   1.3517505554244E-07
(PID.TID 0000.0001) %MON dynstat_theta_max            =   1.2000000000000E+00
(PID.TID 0000.0001) %MON dynstat_theta_min            =  -1.0000000000000E+00
(PID.TID 0000.0001) %MON dynstat_theta_mean           =   5.6825269325431E-01
(PID.TID 0000.0001) %MON dynstat_theta_sd             =   8.6812757671654E-01
(PID.TID 0000.0001) %MON dynstat_theta_del2           =   5.9357922902207E-06
(PID.TID 0000.0001) %MON dynstat_salt_max             =   3.4700000000000E+01
(PID.TID 0000.0001) %MON dynstat_salt_min             =   3.4000000000000E+01
(PID.TID 0000.0001) %MON dynstat_salt_mean            =   3.4498915125806E+01
(PID.TID 0000.0001) %MON dynstat_salt_sd              =   2.7619256309687E-01
(PID.TID 0000.0001) %MON dynstat_salt_del2            =   2.3525262651624E-06
(PID.TID 0000.0001) %MON advcfl_uvel_max              =   5.9257353600601E-03
(PID.TID 0000.0001) %MON advcfl_vvel_max              =   3.7841974081986E-03
(PID.TID 0000.0001) %MON advcfl_wvel_max              =   1.0466870207728E-02
(PID.TID 0000.0001) %MON advcfl_W_hf_max              =   1.0466870207728E-02
(PID.TID 0000.0001) %MON pe_b_mean                    =  -8.2967159138393E-01
(PID.TID 0000.0001) %MON ke_max                       =   1.4823878893216E-03
(PID.TID 0000.0001) %MON ke_mean                      =   1.8630878458669E-06
(PID.TID 0000.0001) %MON ke_vol                       =   4.2724654028656E+12
(PID.TID 0000.0001) // =======================================================
(PID.TID 0000.0001) // End MONITOR dynamic field statistics
(PID.TID 0000.0001) // =======================================================
(PID.TID 0000.0001) // =======================================================
(PID.TID 0000.0001) // Begin OBCS MONITOR field statistics
(PID.TID 0000.0001) // =======================================================
(PID.TID 0000.0001) %MON obc_N_vVel_max               =   1.4972639879497E-05
(PID.TID 0000.0001) %MON obc_N_vVel_min               =   1.4972639879497E-05
(PID.TID 0000.0001) %MON obc_N_vVel_mean              =   1.4972639879497E-05
(PID.TID 0000.0001) %MON obc_N_vVel_sd                =   2.7046956468826E-12
(PID.TID 0000.0001) %MON obc_N_vVel_Int               =   9.8819423204679E+02
(PID.TID 0000.0001) // =======================================================
(PID.TID 0000.0001) // End OBCS MONITOR field statistics
(PID.TID 0000.0001) // =======================================================
 cg2d: Sum(rhs),rhsMax =   4.50799267576627E+00  2.99964718254960E+02
(PID.TID 0000.0001)      cg2d_init_res =   1.10370400132313E-05
(PID.TID 0000.0001)      cg2d_iters(min,last) =      -1      84
(PID.TID 0000.0001)      cg2d_last_res =   9.87593969063178E-12
(PID.TID 0000.0001) // =======================================================
(PID.TID 0000.0001) // Begin MONITOR dynamic field statistics
(PID.TID 0000.0001) // =======================================================
(PID.TID 0000.0001) %MON time_tsnumber                =                  1453
(PID.TID 0000.0001) %MON time_secondsf                =   1.4530000000000E+05
(PID.TID 0000.0001) %MON dynstat_eta_max              =   5.8016233490228E+00
(PID.TID 0000.0001) %MON dynstat_eta_min              =  -1.4193362978684E+01
(PID.TID 0000.0001) %MON dynstat_eta_mean             =  -2.5041458386697E+00
(PID.TID 0000.0001) %MON dynstat_eta_sd               =   4.9501300265975E+00
(PID.TID 0000.0001) %MON dynstat_eta_del2             =   2.0716824911845E-01
(PID.TID 0000.0001) %MON dynstat_uvel_max             =   1.3162174159582E-02
(PID.TID 0000.0001) %MON dynstat_uvel_min             =  -5.9375101315922E-02
(PID.TID 0000.0001) %MON dynstat_uvel_mean            =  -1.0547869839131E-07
(PID.TID 0000.0001) %MON dynstat_uvel_sd              =   1.7251551568982E-03
(PID.TID 0000.0001) %MON dynstat_uvel_del2            =   2.6373960429252E-06
(PID.TID 0000.0001) %MON dynstat_vvel_max             =   3.7890272152906E-02
(PID.TID 0000.0001) %MON dynstat_vvel_min             =  -2.0493847327238E-02
(PID.TID 0000.0001) %MON dynstat_vvel_mean            =   1.5274254172161E-05
(PID.TID 0000.0001) %MON dynstat_vvel_sd              =   9.0806765399521E-04
(PID.TID 0000.0001) %MON dynstat_vvel_del2            =   1.8819267492261E-06
(PID.TID 0000.0001) %MON dynstat_wvel_max             =   2.0965008795569E-03
(PID.TID 0000.0001) %MON dynstat_wvel_min             =  -2.0383899540537E-03
(PID.TID 0000.0001) %MON dynstat_wvel_mean            =   7.3470075066597E-09
(PID.TID 0000.0001) %MON dynstat_wvel_sd              =   3.4135209570536E-05
(PID.TID 0000.0001) %MON dynstat_wvel_del2            =   1.3542720106941E-07
(PID.TID 0000.0001) %MON dynstat_theta_max            =   1.2000000000000E+00
(PID.TID 0000.0001) %MON dynstat_theta_min            =  -1.0000000000000E+00
(PID.TID 0000.0001) %MON dynstat_theta_mean           =   5.6825099908652E-01
(PID.TID 0000.0001) %MON dynstat_theta_sd             =   8.6812669791932E-01
(PID.TID 0000.0001) %MON dynstat_theta_del2           =   5.9468181357179E-06
(PID.TID 0000.0001) %MON dynstat_salt_max             =   3.4700000000000E+01
(PID.TID 0000.0001) %MON dynstat_salt_min             =   3.4000000000000E+01
(PID.TID 0000.0001) %MON dynstat_salt_mean            =   3.4498914447611E+01
(PID.TID 0000.0001) %MON dynstat_salt_sd              =   2.7619222764889E-01
(PID.TID 0000.0001) %MON dynstat_salt_del2            =   2.3569124723915E-06
(PID.TID 0000.0001) %MON advcfl_uvel_max              =   5.9375101315922E-03
(PID.TID 0000.0001) %MON advcfl_vvel_max              =   3.7890272152906E-03
(PID.TID 0000.0001) %MON advcfl_wvel_max              =   1.0482504397784E-02
(PID.TID 0000.0001) %MON advcfl_W_hf_max              =   1.0482504397784E-02
(PID.TID 0000.0001) %MON pe_b_mean                    =  -8.2967155157667E-01
(PID.TID 0000.0001) %MON ke_max                       =   1.4892704628457E-03
(PID.TID 0000.0001) %MON ke_mean                      =   1.8709721730010E-06
(PID.TID 0000.0001) %MON ke_vol                       =   4.2724653881965E+12
(PID.TID 0000.0001) // =======================================================
(PID.TID 0000.0001) // End MONITOR dynamic field statistics
(PID.TID 0000.0001) // =======================================================
(PID.TID 0000.0001) // =======================================================
(PID.TID 0000.0001) // Begin OBCS MONITOR field statistics
(PID.TID 0000.0001) // =======================================================
(PID.TID 0000.0001) %MON obc_N_vVel_max               =   1.4965845604098E-05
(PID.TID 0000.0001) %MON obc_N_vVel_min               =   1.4965845604098E-05
(PID.TID 0000.0001) %MON obc_N_vVel_mean              =   1.4965845604098E-05
(PID.TID 0000.0001) %MON obc_N_vVel_sd                =  -2.3264454728054E-25
(PID.TID 0000.0001) %MON obc_N_vVel_Int               =   9.8774580987048E+02
(PID.TID 0000.0001) // =======================================================
(PID.TID 0000.0001) // End OBCS MONITOR field statistics
(PID.TID 0000.0001) // =======================================================
 cg2d: Sum(rhs),rhsMax =   4.50799586226734E+00  2.99964794223871E+02
(PID.TID 0000.0001)      cg2d_init_res =   1.10483755474630E-05
(PID.TID 0000.0001)      cg2d_iters(min,last) =      -1      84
(PID.TID 0000.0001)      cg2d_last_res =   9.88053456816583E-12
(PID.TID 0000.0001) // =======================================================
(PID.TID 0000.0001) // Begin MONITOR dynamic field statistics
(PID.TID 0000.0001) // =======================================================
(PID.TID 0000.0001) %MON time_tsnumber                =                  1454
(PID.TID 0000.0001) %MON time_secondsf                =   1.4540000000000E+05
(PID.TID 0000.0001) %MON dynstat_eta_max              =   5.8016550697307E+00
(PID.TID 0000.0001) %MON dynstat_eta_min              =  -1.4193392845610E+01
(PID.TID 0000.0001) %MON dynstat_eta_mean             =  -2.5041482429391E+00
(PID.TID 0000.0001) %MON dynstat_eta_sd               =   4.9501314191798E+00
(PID.TID 0000.0001) %MON dynstat_eta_del2             =   2.0716830504645E-01
(PID.TID 0000.0001) %MON dynstat_uvel_max             =   1.3191438326398E-02
(PID.TID 0000.0001) %MON dynstat_uvel_min             =  -5.9492920140154E-02
(PID.TID 0000.0001) %MON dynstat_uvel_mean            =  -1.0541034930332E-07
(PID.TID 0000.0001) %MON dynstat_uvel_sd              =   1.7288919455594E-03
(PID.TID 0000.0001) %MON dynstat_uvel_del2            =   2.6437881405469E-06
(PID.TID 0000.0001) %MON dynstat_vvel_max             =   3.7938535764765E-02
(PID.TID 0000.0001) %MON dynstat_vvel_min             =  -2.0542415236219E-02
(PID.TID 0000.0001) %MON dynstat_vvel_mean            =   1.5264941542142E-05
(PID.TID 0000.0001) %MON dynstat_vvel_sd              =   9.0981465765304E-04
(PID.TID 0000.0001) %MON dynstat_vvel_del2            =   1.8855923369925E-06
(PID.TID 0000.0001) %MON dynstat_wvel_max             =   2.0996261336626E-03
(PID.TID 0000.0001) %MON dynstat_wvel_min             =  -2.0416502974491E-03
(PID.TID 0000.0001) %MON dynstat_wvel_mean            =   7.3298967365949E-09
(PID.TID 0000.0001) %MON dynstat_wvel_sd              =   3.4200181175532E-05
(PID.TID 0000.0001) %MON dynstat_wvel_del2            =   1.3567578549798E-07
(PID.TID 0000.0001) %MON dynstat_theta_max            =   1.2000000000000E+00
(PID.TID 0000.0001) %MON dynstat_theta_min            =  -1.0000000000000E+00
(PID.TID 0000.0001) %MON dynstat_theta_mean           =   5.6824930199105E-01
(PID.TID 0000.0001) %MON dynstat_theta_sd             =   8.6812581780570E-01
(PID.TID 0000.0001) %MON dynstat_theta_del2           =   5.9578642388444E-06
(PID.TID 0000.0001) %MON dynstat_salt_max             =   3.4700000000000E+01
(PID.TID 0000.0001) %MON dynstat_salt_min             =   3.4000000000000E+01
(PID.TID 0000.0001) %MON dynstat_salt_mean            =   3.4498913768243E+01
(PID.TID 0000.0001) %MON dynstat_salt_sd              =   2.7619189171895E-01
(PID.TID 0000.0001) %MON dynstat_salt_del2            =   2.3613061589739E-06
(PID.TID 0000.0001) %MON advcfl_uvel_max              =   5.9492920140154E-03
(PID.TID 0000.0001) %MON advcfl_vvel_max              =   3.7938535764765E-03
(PID.TID 0000.0001) %MON advcfl_wvel_max              =   1.0498130668313E-02
(PID.TID 0000.0001) %MON advcfl_W_hf_max              =   1.0498130668313E-02
(PID.TID 0000.0001) %MON pe_b_mean                    =  -8.2967150077218E-01
(PID.TID 0000.0001) %MON ke_max                       =   1.4961784539826E-03
(PID.TID 0000.0001) %MON ke_mean                      =   1.8788854848333E-06
(PID.TID 0000.0001) %MON ke_vol                       =   4.2724653737183E+12
(PID.TID 0000.0001) // =======================================================
(PID.TID 0000.0001) // End MONITOR dynamic field statistics
(PID.TID 0000.0001) // =======================================================
(PID.TID 0000.0001) // =======================================================
(PID.TID 0000.0001) // Begin OBCS MONITOR field statistics
(PID.TID 0000.0001) // =======================================================
(PID.TID 0000.0001) %MON obc_N_vVel_max               =   1.4958200088918E-05
(PID.TID 0000.0001) %MON obc_N_vVel_min               =   1.4958200088918E-05
(PID.TID 0000.0001) %MON obc_N_vVel_mean              =   1.4958200088918E-05
(PID.TID 0000.0001) %MON obc_N_vVel_sd                =  -2.3057659574916E-23
(PID.TID 0000.0001) %MON obc_N_vVel_Int               =   9.8724120586859E+02
(PID.TID 0000.0001) // =======================================================
(PID.TID 0000.0001) // End OBCS MONITOR field statistics
(PID.TID 0000.0001) // =======================================================
 cg2d: Sum(rhs),rhsMax =   4.50799898966357E+00  2.99964870063180E+02
(PID.TID 0000.0001)      cg2d_init_res =   1.10599840558943E-05
(PID.TID 0000.0001)      cg2d_iters(min,last) =      -1      84
(PID.TID 0000.0001)      cg2d_last_res =   9.88608976303337E-12
(PID.TID 0000.0001) // =======================================================
(PID.TID 0000.0001) // Begin MONITOR dynamic field statistics
(PID.TID 0000.0001) // =======================================================
(PID.TID 0000.0001) %MON time_tsnumber                =                  1455
(PID.TID 0000.0001) %MON time_secondsf                =   1.4550000000000E+05
(PID.TID 0000.0001) %MON dynstat_eta_max              =   5.8016869151740E+00
(PID.TID 0000.0001) %MON dynstat_eta_min              =  -1.4193422701575E+01
(PID.TID 0000.0001) %MON dynstat_eta_mean             =  -2.5041506132951E+00
(PID.TID 0000.0001) %MON dynstat_eta_sd               =   4.9501328010750E+00
(PID.TID 0000.0001) %MON dynstat_eta_del2             =   2.0716836105206E-01
(PID.TID 0000.0001) %MON dynstat_uvel_max             =   1.3220747609648E-02
(PID.TID 0000.0001) %MON dynstat_uvel_min             =  -5.9610809210278E-02
(PID.TID 0000.0001) %MON dynstat_uvel_mean            =  -1.0535289329841E-07
(PID.TID 0000.0001) %MON dynstat_uvel_sd              =   1.7326351640966E-03
(PID.TID 0000.0001) %MON dynstat_uvel_del2            =   2.6501953016972E-06
(PID.TID 0000.0001) %MON dynstat_vvel_max             =   3.7986764751496E-02
(PID.TID 0000.0001) %MON dynstat_vvel_min             =  -2.0591069969630E-02
(PID.TID 0000.0001) %MON dynstat_vvel_mean            =   1.5255002393468E-05
(PID.TID 0000.0001) %MON dynstat_vvel_sd              =   9.1156318296362E-04
(PID.TID 0000.0001) %MON dynstat_vvel_del2            =   1.8892616896779E-06
(PID.TID 0000.0001) %MON dynstat_wvel_max             =   2.1027497832780E-03
(PID.TID 0000.0001) %MON dynstat_wvel_min             =  -2.0449109114612E-03
(PID.TID 0000.0001) %MON dynstat_wvel_mean            =   7.3136391080693E-09
(PID.TID 0000.0001) %MON dynstat_wvel_sd              =   3.4261367338924E-05
(PID.TID 0000.0001) %MON dynstat_wvel_del2            =   1.3591880137576E-07
(PID.TID 0000.0001) %MON dynstat_theta_max            =   1.2000000000000E+00
(PID.TID 0000.0001) %MON dynstat_theta_min            =  -1.0000000000000E+00
(PID.TID 0000.0001) %MON dynstat_theta_mean           =   5.6824760196160E-01
(PID.TID 0000.0001) %MON dynstat_theta_sd             =   8.6812493637813E-01
(PID.TID 0000.0001) %MON dynstat_theta_del2           =   5.9689311372880E-06
(PID.TID 0000.0001) %MON dynstat_salt_max             =   3.4700000000000E+01
(PID.TID 0000.0001) %MON dynstat_salt_min             =   3.4000000000000E+01
(PID.TID 0000.0001) %MON dynstat_salt_mean            =   3.4498913087699E+01
(PID.TID 0000.0001) %MON dynstat_salt_sd              =   2.7619155530769E-01
(PID.TID 0000.0001) %MON dynstat_salt_del2            =   2.3657074437712E-06
(PID.TID 0000.0001) %MON advcfl_uvel_max              =   5.9610809210278E-03
(PID.TID 0000.0001) %MON advcfl_vvel_max              =   3.7986764751496E-03
(PID.TID 0000.0001) %MON advcfl_wvel_max              =   1.0513748916390E-02
(PID.TID 0000.0001) %MON advcfl_W_hf_max              =   1.0513748916390E-02
(PID.TID 0000.0001) %MON pe_b_mean                    =  -8.2967143881604E-01
(PID.TID 0000.0001) %MON ke_max                       =   1.5031119025120E-03
(PID.TID 0000.0001) %MON ke_mean                      =   1.8868278328393E-06
(PID.TID 0000.0001) %MON ke_vol                       =   4.2724653594369E+12
(PID.TID 0000.0001) // =======================================================
(PID.TID 0000.0001) // End MONITOR dynamic field statistics
(PID.TID 0000.0001) // =======================================================
(PID.TID 0000.0001) // =======================================================
(PID.TID 0000.0001) // Begin OBCS MONITOR field statistics
(PID.TID 0000.0001) // =======================================================
(PID.TID 0000.0001) %MON obc_N_vVel_max               =   1.4949882438622E-05
(PID.TID 0000.0001) %MON obc_N_vVel_min               =   1.4949882438622E-05
(PID.TID 0000.0001) %MON obc_N_vVel_mean              =   1.4949882438622E-05
(PID.TID 0000.0001) %MON obc_N_vVel_sd                =  -1.1528829787458E-23
(PID.TID 0000.0001) %MON obc_N_vVel_Int               =   9.8669224094907E+02
(PID.TID 0000.0001) // =======================================================
(PID.TID 0000.0001) // End OBCS MONITOR field statistics
(PID.TID 0000.0001) // =======================================================
 cg2d: Sum(rhs),rhsMax =   4.50800205673599E+00  2.99964945785980E+02
(PID.TID 0000.0001)      cg2d_init_res =   1.10719179939022E-05
(PID.TID 0000.0001)      cg2d_iters(min,last) =      -1      84
(PID.TID 0000.0001)      cg2d_last_res =   9.89268605614261E-12
(PID.TID 0000.0001) // =======================================================
(PID.TID 0000.0001) // Begin MONITOR dynamic field statistics
(PID.TID 0000.0001) // =======================================================
(PID.TID 0000.0001) %MON time_tsnumber                =                  1456
(PID.TID 0000.0001) %MON time_secondsf                =   1.4560000000000E+05
(PID.TID 0000.0001) %MON dynstat_eta_max              =   5.8017188861303E+00
(PID.TID 0000.0001) %MON dynstat_eta_min              =  -1.4193452546440E+01
(PID.TID 0000.0001) %MON dynstat_eta_mean             =  -2.5041529491702E+00
(PID.TID 0000.0001) %MON dynstat_eta_sd               =   4.9501341722823E+00
(PID.TID 0000.0001) %MON dynstat_eta_del2             =   2.0716841713564E-01
(PID.TID 0000.0001) %MON dynstat_uvel_max             =   1.3250102037427E-02
(PID.TID 0000.0001) %MON dynstat_uvel_min             =  -5.9728767659380E-02
(PID.TID 0000.0001) %MON dynstat_uvel_mean            =  -1.0530692284641E-07
(PID.TID 0000.0001) %MON dynstat_uvel_sd              =   1.7363848146311E-03
(PID.TID 0000.0001) %MON dynstat_uvel_del2            =   2.6566175615604E-06
(PID.TID 0000.0001) %MON dynstat_vvel_max             =   3.8034958949538E-02
(PID.TID 0000.0001) %MON dynstat_vvel_min             =  -2.0639811391314E-02
(PID.TID 0000.0001) %MON dynstat_vvel_mean            =   1.5244664886636E-05
(PID.TID 0000.0001) %MON dynstat_vvel_sd              =   9.1331323385129E-04
(PID.TID 0000.0001) %MON dynstat_vvel_del2            =   1.8929345458256E-06
(PID.TID 0000.0001) %MON dynstat_wvel_max             =   2.1058718078179E-03
(PID.TID 0000.0001) %MON dynstat_wvel_min             =  -2.0481717762314E-03
(PID.TID 0000.0001) %MON dynstat_wvel_mean            =   7.2986002093415E-09
(PID.TID 0000.0001) %MON dynstat_wvel_sd              =   3.4318602384959E-05
(PID.TID 0000.0001) %MON dynstat_wvel_del2            =   1.3615452563521E-07
(PID.TID 0000.0001) %MON dynstat_theta_max            =   1.2000000000000E+00
(PID.TID 0000.0001) %MON dynstat_theta_min            =  -1.0000000000000E+00
(PID.TID 0000.0001) %MON dynstat_theta_mean           =   5.6824589899206E-01
(PID.TID 0000.0001) %MON dynstat_theta_sd             =   8.6812405363842E-01
(PID.TID 0000.0001) %MON dynstat_theta_del2           =   5.9800189237518E-06
(PID.TID 0000.0001) %MON dynstat_salt_max             =   3.4700000000000E+01
(PID.TID 0000.0001) %MON dynstat_salt_min             =   3.4000000000000E+01
(PID.TID 0000.0001) %MON dynstat_salt_mean            =   3.4498912405977E+01
(PID.TID 0000.0001) %MON dynstat_salt_sd              =   2.7619121841596E-01
(PID.TID 0000.0001) %MON dynstat_salt_del2            =   2.3701164038377E-06
(PID.TID 0000.0001) %MON advcfl_uvel_max              =   5.9728767659380E-03
(PID.TID 0000.0001) %MON advcfl_vvel_max              =   3.8034958949538E-03
(PID.TID 0000.0001) %MON advcfl_wvel_max              =   1.0529359039090E-02
(PID.TID 0000.0001) %MON advcfl_W_hf_max              =   1.0529359039090E-02
(PID.TID 0000.0001) %MON pe_b_mean                    =  -8.2967136561215E-01
(PID.TID 0000.0001) %MON ke_max                       =   1.5100708477516E-03
(PID.TID 0000.0001) %MON ke_mean                      =   1.8947993064439E-06
(PID.TID 0000.0001) %MON ke_vol                       =   4.2724653453570E+12
(PID.TID 0000.0001) // =======================================================
(PID.TID 0000.0001) // End MONITOR dynamic field statistics
(PID.TID 0000.0001) // =======================================================
(PID.TID 0000.0001) // =======================================================
(PID.TID 0000.0001) // Begin OBCS MONITOR field statistics
(PID.TID 0000.0001) // =======================================================
(PID.TID 0000.0001) %MON obc_N_vVel_max               =   1.4941084265581E-05
(PID.TID 0000.0001) %MON obc_N_vVel_min               =   1.4941084265581E-05
(PID.TID 0000.0001) %MON obc_N_vVel_mean              =   1.4941084265581E-05
(PID.TID 0000.0001) %MON obc_N_vVel_sd                =   1.1138989715542E-12
(PID.TID 0000.0001) %MON obc_N_vVel_Int               =   9.8611156152836E+02
(PID.TID 0000.0001) // =======================================================
(PID.TID 0000.0001) // End OBCS MONITOR field statistics
(PID.TID 0000.0001) // =======================================================
 cg2d: Sum(rhs),rhsMax =   4.50800506262591E+00  2.99965021408003E+02
(PID.TID 0000.0001)      cg2d_init_res =   1.10842252519141E-05
(PID.TID 0000.0001)      cg2d_iters(min,last) =      -1      84
(PID.TID 0000.0001)      cg2d_last_res =   9.90037934794058E-12
(PID.TID 0000.0001) // =======================================================
(PID.TID 0000.0001) // Begin MONITOR dynamic field statistics
(PID.TID 0000.0001) // =======================================================
(PID.TID 0000.0001) %MON time_tsnumber                =                  1457
(PID.TID 0000.0001) %MON time_secondsf                =   1.4570000000000E+05
(PID.TID 0000.0001) %MON dynstat_eta_max              =   5.8017509829142E+00
(PID.TID 0000.0001) %MON dynstat_eta_min              =  -1.4193482380315E+01
(PID.TID 0000.0001) %MON dynstat_eta_mean             =  -2.5041552502185E+00
(PID.TID 0000.0001) %MON dynstat_eta_sd               =   4.9501355328785E+00
(PID.TID 0000.0001) %MON dynstat_eta_del2             =   2.0716847329759E-01
(PID.TID 0000.0001) %MON dynstat_uvel_max             =   1.3279501637612E-02
(PID.TID 0000.0001) %MON dynstat_uvel_min             =  -5.9846794616449E-02
(PID.TID 0000.0001) %MON dynstat_uvel_mean            =  -1.0527278478334E-07
(PID.TID 0000.0001) %MON dynstat_uvel_sd              =   1.7401408989473E-03
(PID.TID 0000.0001) %MON dynstat_uvel_del2            =   2.6630549550526E-06
(PID.TID 0000.0001) %MON dynstat_vvel_max             =   3.8083118196831E-02
(PID.TID 0000.0001) %MON dynstat_vvel_min             =  -2.0688639361557E-02
(PID.TID 0000.0001) %MON dynstat_vvel_mean            =   1.5234163556339E-05
(PID.TID 0000.0001) %MON dynstat_vvel_sd              =   9.1506485771594E-04
(PID.TID 0000.0001) %MON dynstat_vvel_del2            =   1.8966107622983E-06
(PID.TID 0000.0001) %MON dynstat_wvel_max             =   2.1089921867367E-03
(PID.TID 0000.0001) %MON dynstat_wvel_min             =  -2.0514328715293E-03
(PID.TID 0000.0001) %MON dynstat_wvel_mean            =   7.2851168573218E-09
(PID.TID 0000.0001) %MON dynstat_wvel_sd              =   3.4371856663770E-05
(PID.TID 0000.0001) %MON dynstat_wvel_del2            =   1.3638162636272E-07
(PID.TID 0000.0001) %MON dynstat_theta_max            =   1.2000000000000E+00
(PID.TID 0000.0001) %MON dynstat_theta_min            =  -1.0000000000000E+00
(PID.TID 0000.0001) %MON dynstat_theta_mean           =   5.6824419307650E-01
(PID.TID 0000.0001) %MON dynstat_theta_sd             =   8.6812316958645E-01
(PID.TID 0000.0001) %MON dynstat_theta_del2           =   5.9911277594260E-06
(PID.TID 0000.0001) %MON dynstat_salt_max             =   3.4700000000000E+01
(PID.TID 0000.0001) %MON dynstat_salt_min             =   3.4000000000000E+01
(PID.TID 0000.0001) %MON dynstat_salt_mean            =   3.4498911723074E+01
(PID.TID 0000.0001) %MON dynstat_salt_sd              =   2.7619088104383E-01
(PID.TID 0000.0001) %MON dynstat_salt_del2            =   2.3745332587756E-06
(PID.TID 0000.0001) %MON advcfl_uvel_max              =   5.9846794616449E-03
(PID.TID 0000.0001) %MON advcfl_vvel_max              =   3.8083118196831E-03
(PID.TID 0000.0001) %MON advcfl_wvel_max              =   1.0544960933684E-02
(PID.TID 0000.0001) %MON advcfl_W_hf_max              =   1.0544960933684E-02
(PID.TID 0000.0001) %MON pe_b_mean                    =  -8.2967128112400E-01
(PID.TID 0000.0001) %MON ke_max                       =   1.5170553285430E-03
(PID.TID 0000.0001) %MON ke_mean                      =   1.9028000345521E-06
(PID.TID 0000.0001) %MON ke_vol                       =   4.2724653314819E+12
(PID.TID 0000.0001) // =======================================================
(PID.TID 0000.0001) // End MONITOR dynamic field statistics
(PID.TID 0000.0001) // =======================================================
(PID.TID 0000.0001) // =======================================================
(PID.TID 0000.0001) // Begin OBCS MONITOR field statistics
(PID.TID 0000.0001) // =======================================================
(PID.TID 0000.0001) %MON obc_N_vVel_max               =   1.4932005580444E-05
(PID.TID 0000.0001) %MON obc_N_vVel_min               =   1.4932005580443E-05
(PID.TID 0000.0001) %MON obc_N_vVel_mean              =   1.4932005580443E-05
(PID.TID 0000.0001) %MON obc_N_vVel_sd                =   2.9863089222462E-12
(PID.TID 0000.0001) %MON obc_N_vVel_Int               =   9.8551236830924E+02
(PID.TID 0000.0001) // =======================================================
(PID.TID 0000.0001) // End OBCS MONITOR field statistics
(PID.TID 0000.0001) // =======================================================
 cg2d: Sum(rhs),rhsMax =   4.50800800684856E+00  2.99965096947265E+02
(PID.TID 0000.0001)      cg2d_init_res =   1.10969550835779E-05
(PID.TID 0000.0001)      cg2d_iters(min,last) =      -1      84
(PID.TID 0000.0001)      cg2d_last_res =   9.90920543529073E-12
(PID.TID 0000.0001) // =======================================================
(PID.TID 0000.0001) // Begin MONITOR dynamic field statistics
(PID.TID 0000.0001) // =======================================================
(PID.TID 0000.0001) %MON time_tsnumber                =                  1458
(PID.TID 0000.0001) %MON time_secondsf                =   1.4580000000000E+05
(PID.TID 0000.0001) %MON dynstat_eta_max              =   5.8017832053866E+00
(PID.TID 0000.0001) %MON dynstat_eta_min              =  -1.4193512203567E+01
(PID.TID 0000.0001) %MON dynstat_eta_mean             =  -2.5041575163211E+00
(PID.TID 0000.0001) %MON dynstat_eta_sd               =   4.9501368830180E+00
(PID.TID 0000.0001) %MON dynstat_eta_del2             =   2.0716852953855E-01
(PID.TID 0000.0001) %MON dynstat_uvel_max             =   1.3308946438462E-02
(PID.TID 0000.0001) %MON dynstat_uvel_min             =  -5.9964889205750E-02
(PID.TID 0000.0001) %MON dynstat_uvel_mean            =  -1.0525057640027E-07
(PID.TID 0000.0001) %MON dynstat_uvel_sd              =   1.7439034184525E-03
(PID.TID 0000.0001) %MON dynstat_uvel_del2            =   2.6695075165873E-06
(PID.TID 0000.0001) %MON dynstat_vvel_max             =   3.8131242331805E-02
(PID.TID 0000.0001) %MON dynstat_vvel_min             =  -2.0737553738037E-02
(PID.TID 0000.0001) %MON dynstat_vvel_mean            =   1.5223734316077E-05
(PID.TID 0000.0001) %MON dynstat_vvel_sd              =   9.1681814536937E-04
(PID.TID 0000.0001) %MON dynstat_vvel_del2            =   1.9002903275703E-06
(PID.TID 0000.0001) %MON dynstat_wvel_max             =   2.1121108995043E-03
(PID.TID 0000.0001) %MON dynstat_wvel_min             =  -2.0546941767354E-03
(PID.TID 0000.0001) %MON dynstat_wvel_mean            =   7.2734900883904E-09
(PID.TID 0000.0001) %MON dynstat_wvel_sd              =   3.4421244611653E-05
(PID.TID 0000.0001) %MON dynstat_wvel_del2            =   1.3659924339225E-07
(PID.TID 0000.0001) %MON dynstat_theta_max            =   1.2000000000000E+00
(PID.TID 0000.0001) %MON dynstat_theta_min            =  -1.0000000000000E+00
(PID.TID 0000.0001) %MON dynstat_theta_mean           =   5.6824248420922E-01
(PID.TID 0000.0001) %MON dynstat_theta_sd             =   8.6812228422319E-01
(PID.TID 0000.0001) %MON dynstat_theta_del2           =   6.0022578757307E-06
(PID.TID 0000.0001) %MON dynstat_salt_max             =   3.4700000000000E+01
(PID.TID 0000.0001) %MON dynstat_salt_min             =   3.4000000000000E+01
(PID.TID 0000.0001) %MON dynstat_salt_mean            =   3.4498911038988E+01
(PID.TID 0000.0001) %MON dynstat_salt_sd              =   2.7619054319166E-01
(PID.TID 0000.0001) %MON dynstat_salt_del2            =   2.3789578525473E-06
(PID.TID 0000.0001) %MON advcfl_uvel_max              =   5.9964889205750E-03
(PID.TID 0000.0001) %MON advcfl_vvel_max              =   3.8131242331805E-03
(PID.TID 0000.0001) %MON advcfl_wvel_max              =   1.0560554497522E-02
(PID.TID 0000.0001) %MON advcfl_W_hf_max              =   1.0560554497522E-02
(PID.TID 0000.0001) %MON pe_b_mean                    =  -8.2967118537460E-01
(PID.TID 0000.0001) %MON ke_max                       =   1.5240653832288E-03
(PID.TID 0000.0001) %MON ke_mean                      =   1.9108301857192E-06
(PID.TID 0000.0001) %MON ke_vol                       =   4.2724653178137E+12
(PID.TID 0000.0001) // =======================================================
(PID.TID 0000.0001) // End MONITOR dynamic field statistics
(PID.TID 0000.0001) // =======================================================
(PID.TID 0000.0001) // =======================================================
(PID.TID 0000.0001) // Begin OBCS MONITOR field statistics
(PID.TID 0000.0001) // =======================================================
(PID.TID 0000.0001) %MON obc_N_vVel_max               =   1.4922850503379E-05
(PID.TID 0000.0001) %MON obc_N_vVel_min               =   1.4922850503379E-05
(PID.TID 0000.0001) %MON obc_N_vVel_mean              =   1.4922850503379E-05
(PID.TID 0000.0001) %MON obc_N_vVel_sd                =  -2.0679515313826E-24
(PID.TID 0000.0001) %MON obc_N_vVel_Int               =   9.8490813322301E+02
(PID.TID 0000.0001) // =======================================================
(PID.TID 0000.0001) // End OBCS MONITOR field statistics
(PID.TID 0000.0001) // =======================================================
 cg2d: Sum(rhs),rhsMax =   4.50801088929494E+00  2.99965172423715E+02
(PID.TID 0000.0001)      cg2d_init_res =   1.11101193505761E-05
(PID.TID 0000.0001)      cg2d_iters(min,last) =      -1      84
(PID.TID 0000.0001)      cg2d_last_res =   9.91915604168315E-12
(PID.TID 0000.0001) // =======================================================
(PID.TID 0000.0001) // Begin MONITOR dynamic field statistics
(PID.TID 0000.0001) // =======================================================
(PID.TID 0000.0001) %MON time_tsnumber                =                  1459
(PID.TID 0000.0001) %MON time_secondsf                =   1.4590000000000E+05
(PID.TID 0000.0001) %MON dynstat_eta_max              =   5.8018155529565E+00
(PID.TID 0000.0001) %MON dynstat_eta_min              =  -1.4193542016786E+01
(PID.TID 0000.0001) %MON dynstat_eta_mean             =  -2.5041597475840E+00
(PID.TID 0000.0001) %MON dynstat_eta_sd               =   4.9501382229176E+00
(PID.TID 0000.0001) %MON dynstat_eta_del2             =   2.0716858585883E-01
(PID.TID 0000.0001) %MON dynstat_uvel_max             =   1.3338436513664E-02
(PID.TID 0000.0001) %MON dynstat_uvel_min             =  -6.0083050547077E-02
(PID.TID 0000.0001) %MON dynstat_uvel_mean            =  -1.0524014324915E-07
(PID.TID 0000.0001) %MON dynstat_uvel_sd              =   1.7476723741813E-03
(PID.TID 0000.0001) %MON dynstat_uvel_del2            =   2.6759752805031E-06
(PID.TID 0000.0001) %MON dynstat_vvel_max             =   3.8179331192173E-02
(PID.TID 0000.0001) %MON dynstat_vvel_min             =  -2.0786554394519E-02
(PID.TID 0000.0001) %MON dynstat_vvel_mean            =   1.5213609502364E-05
(PID.TID 0000.0001) %MON dynstat_vvel_sd              =   9.1857322959493E-04
(PID.TID 0000.0001) %MON dynstat_vvel_del2            =   1.9039733676030E-06
(PID.TID 0000.0001) %MON dynstat_wvel_max             =   2.1152279256140E-03
(PID.TID 0000.0001) %MON dynstat_wvel_min             =  -2.0579556710946E-03
(PID.TID 0000.0001) %MON dynstat_wvel_mean            =   7.2639801873418E-09
(PID.TID 0000.0001) %MON dynstat_wvel_sd              =   3.4467026379760E-05
(PID.TID 0000.0001) %MON dynstat_wvel_del2            =   1.3680703770410E-07
(PID.TID 0000.0001) %MON dynstat_theta_max            =   1.2000000000000E+00
(PID.TID 0000.0001) %MON dynstat_theta_min            =  -1.0000000000000E+00
(PID.TID 0000.0001) %MON dynstat_theta_mean           =   5.6824077238454E-01
(PID.TID 0000.0001) %MON dynstat_theta_sd             =   8.6812139755108E-01
(PID.TID 0000.0001) %MON dynstat_theta_del2           =   6.0134087113357E-06
(PID.TID 0000.0001) %MON dynstat_salt_max             =   3.4700000000000E+01
(PID.TID 0000.0001) %MON dynstat_salt_min             =   3.4000000000000E+01
(PID.TID 0000.0001) %MON dynstat_salt_mean            =   3.4498910353717E+01
(PID.TID 0000.0001) %MON dynstat_salt_sd              =   2.7619020486003E-01
(PID.TID 0000.0001) %MON dynstat_salt_del2            =   2.3833900581416E-06
(PID.TID 0000.0001) %MON advcfl_uvel_max              =   6.0083050547077E-03
(PID.TID 0000.0001) %MON advcfl_vvel_max              =   3.8179331192173E-03
(PID.TID 0000.0001) %MON advcfl_wvel_max              =   1.0576139628070E-02
(PID.TID 0000.0001) %MON advcfl_W_hf_max              =   1.0576139628070E-02
(PID.TID 0000.0001) %MON pe_b_mean                    =  -8.2967107844468E-01
(PID.TID 0000.0001) %MON ke_max                       =   1.5311010496556E-03
(PID.TID 0000.0001) %MON ke_mean                      =   1.9188899671351E-06
(PID.TID 0000.0001) %MON ke_vol                       =   4.2724653043531E+12
(PID.TID 0000.0001) // =======================================================
(PID.TID 0000.0001) // End MONITOR dynamic field statistics
(PID.TID 0000.0001) // =======================================================
(PID.TID 0000.0001) // =======================================================
(PID.TID 0000.0001) // Begin OBCS MONITOR field statistics
(PID.TID 0000.0001) // =======================================================
(PID.TID 0000.0001) %MON obc_N_vVel_max               =   1.4913822933374E-05
(PID.TID 0000.0001) %MON obc_N_vVel_min               =   1.4913822933374E-05
(PID.TID 0000.0001) %MON obc_N_vVel_mean              =   1.4913822933374E-05
(PID.TID 0000.0001) %MON obc_N_vVel_sd                =  -6.7208424769933E-25
(PID.TID 0000.0001) %MON obc_N_vVel_Int               =   9.8431231360271E+02
(PID.TID 0000.0001) // =======================================================
(PID.TID 0000.0001) // End OBCS MONITOR field statistics
(PID.TID 0000.0001) // =======================================================
 cg2d: Sum(rhs),rhsMax =   4.50801371022975E+00  2.99965247858803E+02
(PID.TID 0000.0001)      cg2d_init_res =   1.11237577909592E-05
(PID.TID 0000.0001)      cg2d_iters(min,last) =      -1      84
(PID.TID 0000.0001)      cg2d_last_res =   9.93023187963731E-12
(PID.TID 0000.0001) // =======================================================
(PID.TID 0000.0001) // Begin MONITOR dynamic field statistics
(PID.TID 0000.0001) // =======================================================
(PID.TID 0000.0001) %MON time_tsnumber                =                  1460
(PID.TID 0000.0001) %MON time_secondsf                =   1.4600000000000E+05
(PID.TID 0000.0001) %MON dynstat_eta_max              =   5.8018480246022E+00
(PID.TID 0000.0001) %MON dynstat_eta_min              =  -1.4193571820795E+01
(PID.TID 0000.0001) %MON dynstat_eta_mean             =  -2.5041619443332E+00
(PID.TID 0000.0001) %MON dynstat_eta_sd               =   4.9501395528598E+00
(PID.TID 0000.0001) %MON dynstat_eta_del2             =   2.0716864225900E-01
(PID.TID 0000.0001) %MON dynstat_uvel_max             =   1.3367971918566E-02
(PID.TID 0000.0001) %MON dynstat_uvel_min             =  -6.0201277754750E-02
(PID.TID 0000.0001) %MON dynstat_uvel_mean            =  -1.0524108318378E-07
(PID.TID 0000.0001) %MON dynstat_uvel_sd              =   1.7514477667589E-03
(PID.TID 0000.0001) %MON dynstat_uvel_del2            =   2.6824582803455E-06
(PID.TID 0000.0001) %MON dynstat_vvel_max             =   3.8227384614157E-02
(PID.TID 0000.0001) %MON dynstat_vvel_min             =  -2.0835641189556E-02
(PID.TID 0000.0001) %MON dynstat_vvel_mean            =   1.5204013028916E-05
(PID.TID 0000.0001) %MON dynstat_vvel_sd              =   9.2033028173746E-04
(PID.TID 0000.0001) %MON dynstat_vvel_del2            =   1.9076601406029E-06
(PID.TID 0000.0001) %MON dynstat_wvel_max             =   2.1183432446229E-03
(PID.TID 0000.0001) %MON dynstat_wvel_min             =  -2.0612173326620E-03
(PID.TID 0000.0001) %MON dynstat_wvel_mean            =   7.2568001173133E-09
(PID.TID 0000.0001) %MON dynstat_wvel_sd              =   3.4509602982900E-05
(PID.TID 0000.0001) %MON dynstat_wvel_del2            =   1.3700520708183E-07
(PID.TID 0000.0001) %MON dynstat_theta_max            =   1.2000000000000E+00
(PID.TID 0000.0001) %MON dynstat_theta_min            =  -1.0000000000000E+00
(PID.TID 0000.0001) %MON dynstat_theta_mean           =   5.6823905759682E-01
(PID.TID 0000.0001) %MON dynstat_theta_sd             =   8.6812050957333E-01
(PID.TID 0000.0001) %MON dynstat_theta_del2           =   6.0245798908299E-06
(PID.TID 0000.0001) %MON dynstat_salt_max             =   3.4700000000000E+01
(PID.TID 0000.0001) %MON dynstat_salt_min             =   3.4000000000000E+01
(PID.TID 0000.0001) %MON dynstat_salt_mean            =   3.4498909667260E+01
(PID.TID 0000.0001) %MON dynstat_salt_sd              =   2.7618986605030E-01
(PID.TID 0000.0001) %MON dynstat_salt_del2            =   2.3878297422064E-06
(PID.TID 0000.0001) %MON advcfl_uvel_max              =   6.0201277754750E-03
(PID.TID 0000.0001) %MON advcfl_vvel_max              =   3.8227384614157E-03
(PID.TID 0000.0001) %MON advcfl_wvel_max              =   1.0591716223115E-02
(PID.TID 0000.0001) %MON advcfl_W_hf_max              =   1.0591716223115E-02
(PID.TID 0000.0001) %MON pe_b_mean                    =  -8.2967096046987E-01
(PID.TID 0000.0001) %MON ke_max                       =   1.5381623651270E-03
(PID.TID 0000.0001) %MON ke_mean                      =   1.9269796217159E-06
(PID.TID 0000.0001) %MON ke_vol                       =   4.2724652910994E+12
(PID.TID 0000.0001) // =======================================================
(PID.TID 0000.0001) // End MONITOR dynamic field statistics
(PID.TID 0000.0001) // =======================================================
(PID.TID 0000.0001) // =======================================================
(PID.TID 0000.0001) // Begin OBCS MONITOR field statistics
(PID.TID 0000.0001) // =======================================================
(PID.TID 0000.0001) %MON obc_N_vVel_max               =   1.4905122289559E-05
(PID.TID 0000.0001) %MON obc_N_vVel_min               =   1.4905122289559E-05
(PID.TID 0000.0001) %MON obc_N_vVel_mean              =   1.4905122289559E-05
(PID.TID 0000.0001) %MON obc_N_vVel_sd                =  -3.7998609389155E-24
(PID.TID 0000.0001) %MON obc_N_vVel_Int               =   9.8373807111092E+02
(PID.TID 0000.0001) // =======================================================
(PID.TID 0000.0001) // End OBCS MONITOR field statistics
(PID.TID 0000.0001) // =======================================================
 cg2d: Sum(rhs),rhsMax =   4.50801647028773E+00  2.99965323275079E+02
(PID.TID 0000.0001)      cg2d_init_res =   1.11378933699298E-05
(PID.TID 0000.0001)      cg2d_iters(min,last) =      -1      84
(PID.TID 0000.0001)      cg2d_last_res =   9.94237029413740E-12
(PID.TID 0000.0001) // =======================================================
(PID.TID 0000.0001) // Begin MONITOR dynamic field statistics
(PID.TID 0000.0001) // =======================================================
(PID.TID 0000.0001) %MON time_tsnumber                =                  1461
(PID.TID 0000.0001) %MON time_secondsf                =   1.4610000000000E+05
(PID.TID 0000.0001) %MON dynstat_eta_max              =   5.8018806189013E+00
(PID.TID 0000.0001) %MON dynstat_eta_min              =  -1.4193601616621E+01
(PID.TID 0000.0001) %MON dynstat_eta_mean             =  -2.5041641071097E+00
(PID.TID 0000.0001) %MON dynstat_eta_sd               =   4.9501408731903E+00
(PID.TID 0000.0001) %MON dynstat_eta_del2             =   2.0716869873959E-01
(PID.TID 0000.0001) %MON dynstat_uvel_max             =   1.3397552683735E-02
(PID.TID 0000.0001) %MON dynstat_uvel_min             =  -6.0319569937193E-02
(PID.TID 0000.0001) %MON dynstat_uvel_mean            =  -1.0525275665740E-07
(PID.TID 0000.0001) %MON dynstat_uvel_sd              =   1.7552295963899E-03
(PID.TID 0000.0001) %MON dynstat_uvel_del2            =   2.6889565488138E-06
(PID.TID 0000.0001) %MON dynstat_vvel_max             =   3.8275402431272E-02
(PID.TID 0000.0001) %MON dynstat_vvel_min             =  -2.0884813974916E-02
(PID.TID 0000.0001) %MON dynstat_vvel_mean            =   1.5195155736900E-05
(PID.TID 0000.0001) %MON dynstat_vvel_sd              =   9.2208950705991E-04
(PID.TID 0000.0001) %MON dynstat_vvel_del2            =   1.9113510257490E-06
(PID.TID 0000.0001) %MON dynstat_wvel_max             =   2.1214568361003E-03
(PID.TID 0000.0001) %MON dynstat_wvel_min             =  -2.0644791394016E-03
(PID.TID 0000.0001) %MON dynstat_wvel_mean            =   7.2521127857916E-09
(PID.TID 0000.0001) %MON dynstat_wvel_sd              =   3.4549504719757E-05
(PID.TID 0000.0001) %MON dynstat_wvel_del2            =   1.3719446752579E-07
(PID.TID 0000.0001) %MON dynstat_theta_max            =   1.2000000000000E+00
(PID.TID 0000.0001) %MON dynstat_theta_min            =  -1.0000000000000E+00
(PID.TID 0000.0001) %MON dynstat_theta_mean           =   5.6823733984101E-01
(PID.TID 0000.0001) %MON dynstat_theta_sd             =   8.6811962029313E-01
(PID.TID 0000.0001) %MON dynstat_theta_del2           =   6.0357707927063E-06
(PID.TID 0000.0001) %MON dynstat_salt_max             =   3.4700000000000E+01
(PID.TID 0000.0001) %MON dynstat_salt_min             =   3.4000000000000E+01
(PID.TID 0000.0001) %MON dynstat_salt_mean            =   3.4498908979613E+01
(PID.TID 0000.0001) %MON dynstat_salt_sd              =   2.7618952676346E-01
(PID.TID 0000.0001) %MON dynstat_salt_del2            =   2.3922767400021E-06
(PID.TID 0000.0001) %MON advcfl_uvel_max              =   6.0319569937193E-03
(PID.TID 0000.0001) %MON advcfl_vvel_max              =   3.8275402431272E-03
(PID.TID 0000.0001) %MON advcfl_wvel_max              =   1.0607284180501E-02
(PID.TID 0000.0001) %MON advcfl_W_hf_max              =   1.0607284180501E-02
(PID.TID 0000.0001) %MON pe_b_mean                    =  -8.2967083163952E-01
(PID.TID 0000.0001) %MON ke_max                       =   1.5452493663711E-03
(PID.TID 0000.0001) %MON ke_mean                      =   1.9350994240670E-06
(PID.TID 0000.0001) %MON ke_vol                       =   4.2724652780507E+12
(PID.TID 0000.0001) // =======================================================
(PID.TID 0000.0001) // End MONITOR dynamic field statistics
(PID.TID 0000.0001) // =======================================================
(PID.TID 0000.0001) // =======================================================
(PID.TID 0000.0001) // Begin OBCS MONITOR field statistics
(PID.TID 0000.0001) // =======================================================
(PID.TID 0000.0001) %MON obc_N_vVel_max               =   1.4896939309414E-05
(PID.TID 0000.0001) %MON obc_N_vVel_min               =   1.4896939309413E-05
(PID.TID 0000.0001) %MON obc_N_vVel_mean              =   1.4896939309414E-05
(PID.TID 0000.0001) %MON obc_N_vVel_sd                =  -1.8766660147297E-23
(PID.TID 0000.0001) %MON obc_N_vVel_Int               =   9.8319799442133E+02
(PID.TID 0000.0001) // =======================================================
(PID.TID 0000.0001) // End OBCS MONITOR field statistics
(PID.TID 0000.0001) // =======================================================
 cg2d: Sum(rhs),rhsMax =   4.50801917044848E+00  2.99965398695729E+02
(PID.TID 0000.0001)      cg2d_init_res =   1.11525410181065E-05
(PID.TID 0000.0001)      cg2d_iters(min,last) =      -1      84
(PID.TID 0000.0001)      cg2d_last_res =   9.95552128477133E-12
(PID.TID 0000.0001) // =======================================================
(PID.TID 0000.0001) // Begin MONITOR dynamic field statistics
(PID.TID 0000.0001) // =======================================================
(PID.TID 0000.0001) %MON time_tsnumber                =                  1462
(PID.TID 0000.0001) %MON time_secondsf                =   1.4620000000000E+05
(PID.TID 0000.0001) %MON dynstat_eta_max              =   5.8019133340675E+00
(PID.TID 0000.0001) %MON dynstat_eta_min              =  -1.4193631405464E+01
(PID.TID 0000.0001) %MON dynstat_eta_mean             =  -2.5041662366511E+00
(PID.TID 0000.0001) %MON dynstat_eta_sd               =   4.9501421843038E+00
(PID.TID 0000.0001) %MON dynstat_eta_del2             =   2.0716875530117E-01
(PID.TID 0000.0001) %MON dynstat_uvel_max             =   1.3427178840423E-02
(PID.TID 0000.0001) %MON dynstat_uvel_min             =  -6.0437926197115E-02
(PID.TID 0000.0001) %MON dynstat_uvel_mean            =  -1.0527430568988E-07
(PID.TID 0000.0001) %MON dynstat_uvel_sd              =   1.7590178628644E-03
(PID.TID 0000.0001) %MON dynstat_uvel_del2            =   2.6954701176283E-06
(PID.TID 0000.0001) %MON dynstat_vvel_max             =   3.8323384473533E-02
(PID.TID 0000.0001) %MON dynstat_vvel_min             =  -2.0934072605968E-02
(PID.TID 0000.0001) %MON dynstat_vvel_mean            =   1.5187231039011E-05
(PID.TID 0000.0001) %MON dynstat_vvel_sd              =   9.2385113881176E-04
(PID.TID 0000.0001) %MON dynstat_vvel_del2            =   1.9150465051840E-06
(PID.TID 0000.0001) %MON dynstat_wvel_max             =   2.1245686796731E-03
(PID.TID 0000.0001) %MON dynstat_wvel_min             =  -2.0677410687771E-03
(PID.TID 0000.0001) %MON dynstat_wvel_mean            =   7.2500261400352E-09
(PID.TID 0000.0001) %MON dynstat_wvel_sd              =   3.4587373297516E-05
(PID.TID 0000.0001) %MON dynstat_wvel_del2            =   1.3737600202684E-07
(PID.TID 0000.0001) %MON dynstat_theta_max            =   1.2000000000000E+00
(PID.TID 0000.0001) %MON dynstat_theta_min            =  -1.0000000000000E+00
(PID.TID 0000.0001) %MON dynstat_theta_mean           =   5.6823561911213E-01
(PID.TID 0000.0001) %MON dynstat_theta_sd             =   8.6811872971265E-01
(PID.TID 0000.0001) %MON dynstat_theta_del2           =   6.0469806756354E-06
(PID.TID 0000.0001) %MON dynstat_salt_max             =   3.4700000000000E+01
(PID.TID 0000.0001) %MON dynstat_salt_min             =   3.4000000000000E+01
(PID.TID 0000.0001) %MON dynstat_salt_mean            =   3.4498908290776E+01
(PID.TID 0000.0001) %MON dynstat_salt_sd              =   2.7618918700024E-01
(PID.TID 0000.0001) %MON dynstat_salt_del2            =   2.3967308219751E-06
(PID.TID 0000.0001) %MON advcfl_uvel_max              =   6.0437926197115E-03
(PID.TID 0000.0001) %MON advcfl_vvel_max              =   3.8323384473533E-03
(PID.TID 0000.0001) %MON advcfl_wvel_max              =   1.0622843398365E-02
(PID.TID 0000.0001) %MON advcfl_W_hf_max              =   1.0622843398365E-02
(PID.TID 0000.0001) %MON pe_b_mean                    =  -8.2967069219028E-01
(PID.TID 0000.0001) %MON ke_max                       =   1.5523620895561E-03
(PID.TID 0000.0001) %MON ke_mean                      =   1.9432496752460E-06
(PID.TID 0000.0001) %MON ke_vol                       =   4.2724652652038E+12
(PID.TID 0000.0001) // =======================================================
(PID.TID 0000.0001) // End MONITOR dynamic field statistics
(PID.TID 0000.0001) // =======================================================
(PID.TID 0000.0001) // =======================================================
(PID.TID 0000.0001) // Begin OBCS MONITOR field statistics
(PID.TID 0000.0001) // =======================================================
(PID.TID 0000.0001) %MON obc_N_vVel_max               =   1.4889452167978E-05
(PID.TID 0000.0001) %MON obc_N_vVel_min               =   1.4889452167978E-05
(PID.TID 0000.0001) %MON obc_N_vVel_mean              =   1.4889452167978E-05
(PID.TID 0000.0001) %MON obc_N_vVel_sd                =   2.1085767219792E-12
(PID.TID 0000.0001) %MON obc_N_vVel_Int               =   9.8270384308654E+02
(PID.TID 0000.0001) // =======================================================
(PID.TID 0000.0001) // End OBCS MONITOR field statistics
(PID.TID 0000.0001) // =======================================================
 cg2d: Sum(rhs),rhsMax =   4.50802181201380E+00  2.99965474144117E+02
(PID.TID 0000.0001)      cg2d_init_res =   1.11677004042187E-05
(PID.TID 0000.0001)      cg2d_iters(min,last) =      -1      84
(PID.TID 0000.0001)      cg2d_last_res =   9.96955678470703E-12
(PID.TID 0000.0001) // =======================================================
(PID.TID 0000.0001) // Begin MONITOR dynamic field statistics
(PID.TID 0000.0001) // =======================================================
(PID.TID 0000.0001) %MON time_tsnumber                =                  1463
(PID.TID 0000.0001) %MON time_secondsf                =   1.4630000000000E+05
(PID.TID 0000.0001) %MON dynstat_eta_max              =   5.8019461679912E+00
(PID.TID 0000.0001) %MON dynstat_eta_min              =  -1.4193661188690E+01
(PID.TID 0000.0001) %MON dynstat_eta_mean             =  -2.5041683338754E+00
(PID.TID 0000.0001) %MON dynstat_eta_sd               =   4.9501434866367E+00
(PID.TID 0000.0001) %MON dynstat_eta_del2             =   2.0716881194420E-01
(PID.TID 0000.0001) %MON dynstat_uvel_max             =   1.3456850422141E-02
(PID.TID 0000.0001) %MON dynstat_uvel_min             =  -6.0556345631472E-02
(PID.TID 0000.0001) %MON dynstat_uvel_mean            =  -1.0530466906434E-07
(PID.TID 0000.0001) %MON dynstat_uvel_sd              =   1.7628125655833E-03
(PID.TID 0000.0001) %MON dynstat_uvel_del2            =   2.7019990177319E-06
(PID.TID 0000.0001) %MON dynstat_vvel_max             =   3.8371330566701E-02
(PID.TID 0000.0001) %MON dynstat_vvel_min             =  -2.0983416939821E-02
(PID.TID 0000.0001) %MON dynstat_vvel_mean            =   1.5180410984571E-05
(PID.TID 0000.0001) %MON dynstat_vvel_sd              =   9.2561543113443E-04
(PID.TID 0000.0001) %MON dynstat_vvel_del2            =   1.9187471398359E-06
(PID.TID 0000.0001) %MON dynstat_wvel_max             =   2.1276787550283E-03
(PID.TID 0000.0001) %MON dynstat_wvel_min             =  -2.0710030973950E-03
(PID.TID 0000.0001) %MON dynstat_wvel_mean            =   7.2505933628511E-09
(PID.TID 0000.0001) %MON dynstat_wvel_sd              =   3.4623938627982E-05
(PID.TID 0000.0001) %MON dynstat_wvel_del2            =   1.3755138213608E-07
(PID.TID 0000.0001) %MON dynstat_theta_max            =   1.2000000000000E+00
(PID.TID 0000.0001) %MON dynstat_theta_min            =  -1.0000000000000E+00
(PID.TID 0000.0001) %MON dynstat_theta_mean           =   5.6823389540552E-01
(PID.TID 0000.0001) %MON dynstat_theta_sd             =   8.6811783783318E-01
(PID.TID 0000.0001) %MON dynstat_theta_del2           =   6.0582086088847E-06
(PID.TID 0000.0001) %MON dynstat_salt_max             =   3.4700000000000E+01
(PID.TID 0000.0001) %MON dynstat_salt_min             =   3.4000000000000E+01
(PID.TID 0000.0001) %MON dynstat_salt_mean            =   3.4498907600746E+01
(PID.TID 0000.0001) %MON dynstat_salt_sd              =   2.7618884676115E-01
(PID.TID 0000.0001) %MON dynstat_salt_del2            =   2.4011915641075E-06
(PID.TID 0000.0001) %MON advcfl_uvel_max              =   6.0556345631472E-03
(PID.TID 0000.0001) %MON advcfl_vvel_max              =   3.8371330566701E-03
(PID.TID 0000.0001) %MON advcfl_wvel_max              =   1.0638393775141E-02
(PID.TID 0000.0001) %MON advcfl_W_hf_max              =   1.0638393775141E-02
(PID.TID 0000.0001) %MON pe_b_mean                    =  -8.2967054240084E-01
(PID.TID 0000.0001) %MON ke_max                       =   1.5595005702850E-03
(PID.TID 0000.0001) %MON ke_mean                      =   1.9514306964247E-06
(PID.TID 0000.0001) %MON ke_vol                       =   4.2724652525543E+12
(PID.TID 0000.0001) // =======================================================
(PID.TID 0000.0001) // End MONITOR dynamic field statistics
(PID.TID 0000.0001) // =======================================================
(PID.TID 0000.0001) // =======================================================
(PID.TID 0000.0001) // Begin OBCS MONITOR field statistics
(PID.TID 0000.0001) // =======================================================
(PID.TID 0000.0001) %MON obc_N_vVel_max               =   1.4882822722208E-05
(PID.TID 0000.0001) %MON obc_N_vVel_min               =   1.4882822722208E-05
(PID.TID 0000.0001) %MON obc_N_vVel_mean              =   1.4882822722208E-05
(PID.TID 0000.0001) %MON obc_N_vVel_sd                =   3.0420524490773E-12
(PID.TID 0000.0001) %MON obc_N_vVel_Int               =   9.8226629966575E+02
(PID.TID 0000.0001) // =======================================================
(PID.TID 0000.0001) // End OBCS MONITOR field statistics
(PID.TID 0000.0001) // =======================================================
 cg2d: Sum(rhs),rhsMax =   4.50802439657524E+00  2.99965549643338E+02
(PID.TID 0000.0001)      cg2d_init_res =   1.11833503901225E-05
(PID.TID 0000.0001)      cg2d_iters(min,last) =      -1      84
(PID.TID 0000.0001)      cg2d_last_res =   9.98438637897786E-12
(PID.TID 0000.0001) // =======================================================
(PID.TID 0000.0001) // Begin MONITOR dynamic field statistics
(PID.TID 0000.0001) // =======================================================
(PID.TID 0000.0001) %MON time_tsnumber                =                  1464
(PID.TID 0000.0001) %MON time_secondsf                =   1.4640000000000E+05
(PID.TID 0000.0001) %MON dynstat_eta_max              =   5.8019791182936E+00
(PID.TID 0000.0001) %MON dynstat_eta_min              =  -1.4193690967782E+01
(PID.TID 0000.0001) %MON dynstat_eta_mean             =  -2.5041703998598E+00
(PID.TID 0000.0001) %MON dynstat_eta_sd               =   4.9501447806516E+00
(PID.TID 0000.0001) %MON dynstat_eta_del2             =   2.0716886866889E-01
(PID.TID 0000.0001) %MON dynstat_uvel_max             =   1.3486567464103E-02
(PID.TID 0000.0001) %MON dynstat_uvel_min             =  -6.0674827331299E-02
(PID.TID 0000.0001) %MON dynstat_uvel_mean            =  -1.0534260750444E-07
(PID.TID 0000.0001) %MON dynstat_uvel_sd              =   1.7666137036024E-03
(PID.TID 0000.0001) %MON dynstat_uvel_del2            =   2.7085432778459E-06
(PID.TID 0000.0001) %MON dynstat_vvel_max             =   3.8419240531247E-02
(PID.TID 0000.0001) %MON dynstat_vvel_min             =  -2.1032846836071E-02
(PID.TID 0000.0001) %MON dynstat_vvel_mean            =   1.5174842822668E-05
(PID.TID 0000.0001) %MON dynstat_vvel_sd              =   9.2738265107283E-04
(PID.TID 0000.0001) %MON dynstat_vvel_del2            =   1.9224535388031E-06
(PID.TID 0000.0001) %MON dynstat_wvel_max             =   2.1307870418971E-03
(PID.TID 0000.0001) %MON dynstat_wvel_min             =  -2.0742652011815E-03
(PID.TID 0000.0001) %MON dynstat_wvel_mean            =   7.2538113419619E-09
(PID.TID 0000.0001) %MON dynstat_wvel_sd              =   3.4659991290600E-05
(PID.TID 0000.0001) %MON dynstat_wvel_del2            =   1.3772246771196E-07
(PID.TID 0000.0001) %MON dynstat_theta_max            =   1.2000000000000E+00
(PID.TID 0000.0001) %MON dynstat_theta_min            =  -1.0000000000000E+00
(PID.TID 0000.0001) %MON dynstat_theta_mean           =   5.6823216871677E-01
(PID.TID 0000.0001) %MON dynstat_theta_sd             =   8.6811694465738E-01
(PID.TID 0000.0001) %MON dynstat_theta_del2           =   6.0694536271053E-06
(PID.TID 0000.0001) %MON dynstat_salt_max             =   3.4700000000000E+01
(PID.TID 0000.0001) %MON dynstat_salt_min             =   3.4000000000000E+01
(PID.TID 0000.0001) %MON dynstat_salt_mean            =   3.4498906909521E+01
(PID.TID 0000.0001) %MON dynstat_salt_sd              =   2.7618850604694E-01
(PID.TID 0000.0001) %MON dynstat_salt_del2            =   2.4056587226014E-06
(PID.TID 0000.0001) %MON advcfl_uvel_max              =   6.0674827331299E-03
(PID.TID 0000.0001) %MON advcfl_vvel_max              =   3.8419240531247E-03
(PID.TID 0000.0001) %MON advcfl_wvel_max              =   1.0653935209485E-02
(PID.TID 0000.0001) %MON advcfl_W_hf_max              =   1.0653935209485E-02
(PID.TID 0000.0001) %MON pe_b_mean                    =  -8.2967038258539E-01
(PID.TID 0000.0001) %MON ke_max                       =   1.5666648435816E-03
(PID.TID 0000.0001) %MON ke_mean                      =   1.9596428216950E-06
(PID.TID 0000.0001) %MON ke_vol                       =   4.2724652400968E+12
(PID.TID 0000.0001) // =======================================================
(PID.TID 0000.0001) // End MONITOR dynamic field statistics
(PID.TID 0000.0001) // =======================================================
(PID.TID 0000.0001) // =======================================================
(PID.TID 0000.0001) // Begin OBCS MONITOR field statistics
(PID.TID 0000.0001) // =======================================================
(PID.TID 0000.0001) %MON obc_N_vVel_max               =   1.4877193333625E-05
(PID.TID 0000.0001) %MON obc_N_vVel_min               =   1.4877193333624E-05
(PID.TID 0000.0001) %MON obc_N_vVel_mean              =   1.4877193333624E-05
(PID.TID 0000.0001) %MON obc_N_vVel_sd                =   3.5077502208291E-12
(PID.TID 0000.0001) %MON obc_N_vVel_Int               =   9.8189476001920E+02
(PID.TID 0000.0001) // =======================================================
(PID.TID 0000.0001) // End OBCS MONITOR field statistics
(PID.TID 0000.0001) // =======================================================
 cg2d: Sum(rhs),rhsMax =   4.50802692597358E+00  2.99965625215771E+02
(PID.TID 0000.0001)      cg2d_init_res =   1.11995047410332E-05
(PID.TID 0000.0001)      cg2d_iters(min,last) =      -1      84
(PID.TID 0000.0001)      cg2d_last_res =   9.99984335422034E-12
(PID.TID 0000.0001) // =======================================================
(PID.TID 0000.0001) // Begin MONITOR dynamic field statistics
(PID.TID 0000.0001) // =======================================================
(PID.TID 0000.0001) %MON time_tsnumber                =                  1465
(PID.TID 0000.0001) %MON time_secondsf                =   1.4650000000000E+05
(PID.TID 0000.0001) %MON dynstat_eta_max              =   5.8020121823771E+00
(PID.TID 0000.0001) %MON dynstat_eta_min              =  -1.4193720744318E+01
(PID.TID 0000.0001) %MON dynstat_eta_mean             =  -2.5041724358133E+00
(PID.TID 0000.0001) %MON dynstat_eta_sd               =   4.9501460668382E+00
(PID.TID 0000.0001) %MON dynstat_eta_del2             =   2.0716892547579E-01
(PID.TID 0000.0001) %MON dynstat_uvel_max             =   1.3516330002959E-02
(PID.TID 0000.0001) %MON dynstat_uvel_min             =  -6.0793370381463E-02
(PID.TID 0000.0001) %MON dynstat_uvel_mean            =  -1.0538673944054E-07
(PID.TID 0000.0001) %MON dynstat_uvel_sd              =   1.7704212756217E-03
(PID.TID 0000.0001) %MON dynstat_uvel_del2            =   2.7151029261544E-06
(PID.TID 0000.0001) %MON dynstat_vvel_max             =   3.8467114182285E-02
(PID.TID 0000.0001) %MON dynstat_vvel_min             =  -2.1082362170647E-02
(PID.TID 0000.0001) %MON dynstat_vvel_mean            =   1.5170646091854E-05
(PID.TID 0000.0001) %MON dynstat_vvel_sd              =   9.2915307002277E-04
(PID.TID 0000.0001) %MON dynstat_vvel_del2            =   1.9261663297835E-06
(PID.TID 0000.0001) %MON dynstat_wvel_max             =   2.1338935200632E-03
(PID.TID 0000.0001) %MON dynstat_wvel_min             =  -2.0775273552946E-03
(PID.TID 0000.0001) %MON dynstat_wvel_mean            =   7.2596200929644E-09
(PID.TID 0000.0001) %MON dynstat_wvel_sd              =   3.4696352067044E-05
(PID.TID 0000.0001) %MON dynstat_wvel_del2            =   1.3789129302630E-07
(PID.TID 0000.0001) %MON dynstat_theta_max            =   1.2000000000000E+00
(PID.TID 0000.0001) %MON dynstat_theta_min            =  -1.0000000000000E+00
(PID.TID 0000.0001) %MON dynstat_theta_mean           =   5.6823043904159E-01
(PID.TID 0000.0001) %MON dynstat_theta_sd             =   8.6811605018605E-01
(PID.TID 0000.0001) %MON dynstat_theta_del2           =   6.0807137500571E-06
(PID.TID 0000.0001) %MON dynstat_salt_max             =   3.4700000000000E+01
(PID.TID 0000.0001) %MON dynstat_salt_min             =   3.4000000000000E+01
(PID.TID 0000.0001) %MON dynstat_salt_mean            =   3.4498906217100E+01
(PID.TID 0000.0001) %MON dynstat_salt_sd              =   2.7618816485824E-01
(PID.TID 0000.0001) %MON dynstat_salt_del2            =   2.4101317980883E-06
(PID.TID 0000.0001) %MON advcfl_uvel_max              =   6.0793370381463E-03
(PID.TID 0000.0001) %MON advcfl_vvel_max              =   3.8467114182285E-03
(PID.TID 0000.0001) %MON advcfl_wvel_max              =   1.0669467600316E-02
(PID.TID 0000.0001) %MON advcfl_W_hf_max              =   1.0669467600316E-02
(PID.TID 0000.0001) %MON pe_b_mean                    =  -8.2967021308601E-01
(PID.TID 0000.0001) %MON ke_max                       =   1.5738549438770E-03
(PID.TID 0000.0001) %MON ke_mean                      =   1.9678863901750E-06
(PID.TID 0000.0001) %MON ke_vol                       =   4.2724652278248E+12
(PID.TID 0000.0001) // =======================================================
(PID.TID 0000.0001) // End MONITOR dynamic field statistics
(PID.TID 0000.0001) // =======================================================
(PID.TID 0000.0001) // =======================================================
(PID.TID 0000.0001) // Begin OBCS MONITOR field statistics
(PID.TID 0000.0001) // =======================================================
(PID.TID 0000.0001) %MON obc_N_vVel_max               =   1.4872684008410E-05
(PID.TID 0000.0001) %MON obc_N_vVel_min               =   1.4872684008410E-05
(PID.TID 0000.0001) %MON obc_N_vVel_mean              =   1.4872684008410E-05
(PID.TID 0000.0001) %MON obc_N_vVel_sd                =   3.1092882480101E-12
(PID.TID 0000.0001) %MON obc_N_vVel_Int               =   9.8159714455504E+02
(PID.TID 0000.0001) // =======================================================
(PID.TID 0000.0001) // End OBCS MONITOR field statistics
(PID.TID 0000.0001) // =======================================================
 cg2d: Sum(rhs),rhsMax =   4.50802940222900E+00  2.99965700882659E+02
(PID.TID 0000.0001)      cg2d_init_res =   1.12160028344424E-05
(PID.TID 0000.0001)      cg2d_iters(min,last) =      -1      85
(PID.TID 0000.0001)      cg2d_last_res =   8.49787049687876E-12
(PID.TID 0000.0001) // =======================================================
(PID.TID 0000.0001) // Begin MONITOR dynamic field statistics
(PID.TID 0000.0001) // =======================================================
(PID.TID 0000.0001) %MON time_tsnumber                =                  1466
(PID.TID 0000.0001) %MON time_secondsf                =   1.4660000000000E+05
(PID.TID 0000.0001) %MON dynstat_eta_max              =   5.8020453571090E+00
(PID.TID 0000.0001) %MON dynstat_eta_min              =  -1.4193750519956E+01
(PID.TID 0000.0001) %MON dynstat_eta_mean             =  -2.5041744430357E+00
(PID.TID 0000.0001) %MON dynstat_eta_sd               =   4.9501473456760E+00
(PID.TID 0000.0001) %MON dynstat_eta_del2             =   2.0716898236588E-01
(PID.TID 0000.0001) %MON dynstat_uvel_max             =   1.3546138077565E-02
(PID.TID 0000.0001) %MON dynstat_uvel_min             =  -6.0911973861239E-02
(PID.TID 0000.0001) %MON dynstat_uvel_mean            =  -1.0543594040985E-07
(PID.TID 0000.0001) %MON dynstat_uvel_sd              =   1.7742352801678E-03
(PID.TID 0000.0001) %MON dynstat_uvel_del2            =   2.7216779818612E-06
(PID.TID 0000.0001) %MON dynstat_vvel_max             =   3.8514951329892E-02
(PID.TID 0000.0001) %MON dynstat_vvel_min             =  -2.1131962810992E-02
(PID.TID 0000.0001) %MON dynstat_vvel_mean            =   1.5167910334085E-05
(PID.TID 0000.0001) %MON dynstat_vvel_sd              =   9.3092695532834E-04
(PID.TID 0000.0001) %MON dynstat_vvel_del2            =   1.9298861293253E-06
(PID.TID 0000.0001) %MON dynstat_wvel_max             =   2.1369981688795E-03
(PID.TID 0000.0001) %MON dynstat_wvel_min             =  -2.0807895321923E-03
(PID.TID 0000.0001) %MON dynstat_wvel_mean            =   7.2679146207888E-09
(PID.TID 0000.0001) %MON dynstat_wvel_sd              =   3.4733840053358E-05
(PID.TID 0000.0001) %MON dynstat_wvel_del2            =   1.3805994741053E-07
(PID.TID 0000.0001) %MON dynstat_theta_max            =   1.2000000000000E+00
(PID.TID 0000.0001) %MON dynstat_theta_min            =  -1.0000000000000E+00
(PID.TID 0000.0001) %MON dynstat_theta_mean           =   5.6822870637398E-01
(PID.TID 0000.0001) %MON dynstat_theta_sd             =   8.6811515441675E-01
(PID.TID 0000.0001) %MON dynstat_theta_del2           =   6.0919840910136E-06
(PID.TID 0000.0001) %MON dynstat_salt_max             =   3.4700000000000E+01
(PID.TID 0000.0001) %MON dynstat_salt_min             =   3.4000000000000E+01
(PID.TID 0000.0001) %MON dynstat_salt_mean            =   3.4498905523481E+01
(PID.TID 0000.0001) %MON dynstat_salt_sd              =   2.7618782319355E-01
(PID.TID 0000.0001) %MON dynstat_salt_del2            =   2.4146089726854E-06
(PID.TID 0000.0001) %MON advcfl_uvel_max              =   6.0911973861239E-03
(PID.TID 0000.0001) %MON advcfl_vvel_max              =   3.8514951329892E-03
(PID.TID 0000.0001) %MON advcfl_wvel_max              =   1.0684990844397E-02
(PID.TID 0000.0001) %MON advcfl_W_hf_max              =   1.0684990844397E-02
(PID.TID 0000.0001) %MON pe_b_mean                    =  -8.2967003425914E-01
(PID.TID 0000.0001) %MON ke_max                       =   1.5810709049774E-03
(PID.TID 0000.0001) %MON ke_mean                      =   1.9761617385159E-06
(PID.TID 0000.0001) %MON ke_vol                       =   4.2724652157313E+12
(PID.TID 0000.0001) // =======================================================
(PID.TID 0000.0001) // End MONITOR dynamic field statistics
(PID.TID 0000.0001) // =======================================================
(PID.TID 0000.0001) // =======================================================
(PID.TID 0000.0001) // Begin OBCS MONITOR field statistics
(PID.TID 0000.0001) // =======================================================
(PID.TID 0000.0001) %MON obc_N_vVel_max               =   1.4869390025348E-05
(PID.TID 0000.0001) %MON obc_N_vVel_min               =   1.4869390025348E-05
(PID.TID 0000.0001) %MON obc_N_vVel_mean              =   1.4869390025348E-05
(PID.TID 0000.0001) %MON obc_N_vVel_sd                =   2.1927123182179E-12
(PID.TID 0000.0001) %MON obc_N_vVel_Int               =   9.8137974167295E+02
(PID.TID 0000.0001) // =======================================================
(PID.TID 0000.0001) // End OBCS MONITOR field statistics
(PID.TID 0000.0001) // =======================================================
 cg2d: Sum(rhs),rhsMax =   4.50803182755998E+00  2.99965776663303E+02
(PID.TID 0000.0001)      cg2d_init_res =   1.12328141882871E-05
(PID.TID 0000.0001)      cg2d_iters(min,last) =      -1      85
(PID.TID 0000.0001)      cg2d_last_res =   8.51185960751901E-12
(PID.TID 0000.0001) // =======================================================
(PID.TID 0000.0001) // Begin MONITOR dynamic field statistics
(PID.TID 0000.0001) // =======================================================
(PID.TID 0000.0001) %MON time_tsnumber                =                  1467
(PID.TID 0000.0001) %MON time_secondsf                =   1.4670000000000E+05
(PID.TID 0000.0001) %MON dynstat_eta_max              =   5.8020786404216E+00
(PID.TID 0000.0001) %MON dynstat_eta_min              =  -1.4193780296328E+01
(PID.TID 0000.0001) %MON dynstat_eta_mean             =  -2.5041764229202E+00
(PID.TID 0000.0001) %MON dynstat_eta_sd               =   4.9501486176355E+00
(PID.TID 0000.0001) %MON dynstat_eta_del2             =   2.0716903933669E-01
(PID.TID 0000.0001) %MON dynstat_uvel_max             =   1.3575991734312E-02
(PID.TID 0000.0001) %MON dynstat_uvel_min             =  -6.1030636841847E-02
(PID.TID 0000.0001) %MON dynstat_uvel_mean            =  -1.0548820875708E-07
(PID.TID 0000.0001) %MON dynstat_uvel_sd              =   1.7780557162919E-03
(PID.TID 0000.0001) %MON dynstat_uvel_del2            =   2.7282684260869E-06
(PID.TID 0000.0001) %MON dynstat_vvel_max             =   3.8562751773906E-02
(PID.TID 0000.0001) %MON dynstat_vvel_min             =  -2.1181648623925E-02
(PID.TID 0000.0001) %MON dynstat_vvel_mean            =   1.5166693697615E-05
(PID.TID 0000.0001) %MON dynstat_vvel_sd              =   9.3270456269624E-04
(PID.TID 0000.0001) %MON dynstat_vvel_del2            =   1.9336135125282E-06
(PID.TID 0000.0001) %MON dynstat_wvel_max             =   2.1401009697842E-03
(PID.TID 0000.0001) %MON dynstat_wvel_min             =  -2.0840517284726E-03
(PID.TID 0000.0001) %MON dynstat_wvel_mean            =   7.2784986698006E-09
(PID.TID 0000.0001) %MON dynstat_wvel_sd              =   3.4773241085925E-05
(PID.TID 0000.0001) %MON dynstat_wvel_del2            =   1.3823046003517E-07
(PID.TID 0000.0001) %MON dynstat_theta_max            =   1.2000000000000E+00
(PID.TID 0000.0001) %MON dynstat_theta_min            =  -1.0000000000000E+00
(PID.TID 0000.0001) %MON dynstat_theta_mean           =   5.6822697071007E-01
(PID.TID 0000.0001) %MON dynstat_theta_sd             =   8.6811425735182E-01
(PID.TID 0000.0001) %MON dynstat_theta_del2           =   6.1032684411513E-06
(PID.TID 0000.0001) %MON dynstat_salt_max             =   3.4700000000000E+01
(PID.TID 0000.0001) %MON dynstat_salt_min             =   3.4000000000000E+01
(PID.TID 0000.0001) %MON dynstat_salt_mean            =   3.4498904828661E+01
(PID.TID 0000.0001) %MON dynstat_salt_sd              =   2.7618748105439E-01
(PID.TID 0000.0001) %MON dynstat_salt_del2            =   2.4190918942163E-06
(PID.TID 0000.0001) %MON advcfl_uvel_max              =   6.1030636841847E-03
(PID.TID 0000.0001) %MON advcfl_vvel_max              =   3.8562751773906E-03
(PID.TID 0000.0001) %MON advcfl_wvel_max              =   1.0700504848921E-02
(PID.TID 0000.0001) %MON advcfl_W_hf_max              =   1.0700504848921E-02
(PID.TID 0000.0001) %MON pe_b_mean                    =  -8.2966984647947E-01
(PID.TID 0000.0001) %MON ke_max                       =   1.5883127601915E-03
(PID.TID 0000.0001) %MON ke_mean                      =   1.9844691949907E-06
(PID.TID 0000.0001) %MON ke_vol                       =   4.2724652038084E+12
(PID.TID 0000.0001) // =======================================================
(PID.TID 0000.0001) // End MONITOR dynamic field statistics
(PID.TID 0000.0001) // =======================================================
(PID.TID 0000.0001) // =======================================================
(PID.TID 0000.0001) // Begin OBCS MONITOR field statistics
(PID.TID 0000.0001) // =======================================================
(PID.TID 0000.0001) %MON obc_N_vVel_max               =   1.4867381368273E-05
(PID.TID 0000.0001) %MON obc_N_vVel_min               =   1.4867381368273E-05
(PID.TID 0000.0001) %MON obc_N_vVel_mean              =   1.4867381368273E-05
(PID.TID 0000.0001) %MON obc_N_vVel_sd                =  -1.2924697071141E-23
(PID.TID 0000.0001) %MON obc_N_vVel_Int               =   9.8124717030603E+02
(PID.TID 0000.0001) // =======================================================
(PID.TID 0000.0001) // End OBCS MONITOR field statistics
(PID.TID 0000.0001) // =======================================================
 cg2d: Sum(rhs),rhsMax =   4.50803420427183E+00  2.99965852576259E+02
(PID.TID 0000.0001)      cg2d_init_res =   1.12502123961187E-05
(PID.TID 0000.0001)      cg2d_iters(min,last) =      -1      85
(PID.TID 0000.0001)      cg2d_last_res =   8.52612078009261E-12
(PID.TID 0000.0001) // =======================================================
(PID.TID 0000.0001) // Begin MONITOR dynamic field statistics
(PID.TID 0000.0001) // =======================================================
(PID.TID 0000.0001) %MON time_tsnumber                =                  1468
(PID.TID 0000.0001) %MON time_secondsf                =   1.4680000000000E+05
(PID.TID 0000.0001) %MON dynstat_eta_max              =   5.8021120290531E+00
(PID.TID 0000.0001) %MON dynstat_eta_min              =  -1.4193810075112E+01
(PID.TID 0000.0001) %MON dynstat_eta_mean             =  -2.5041783769025E+00
(PID.TID 0000.0001) %MON dynstat_eta_sd               =   4.9501498832407E+00
(PID.TID 0000.0001) %MON dynstat_eta_del2             =   2.0716909639146E-01
(PID.TID 0000.0001) %MON dynstat_uvel_max             =   1.3605891000605E-02
(PID.TID 0000.0001) %MON dynstat_uvel_min             =  -6.1149358393701E-02
(PID.TID 0000.0001) %MON dynstat_uvel_mean            =  -1.0554189561320E-07
(PID.TID 0000.0001) %MON dynstat_uvel_sd              =   1.7818825817788E-03
(PID.TID 0000.0001) %MON dynstat_uvel_del2            =   2.7348742858807E-06
(PID.TID 0000.0001) %MON dynstat_vvel_max             =   3.8610515311604E-02
(PID.TID 0000.0001) %MON dynstat_vvel_min             =  -2.1231419451865E-02
(PID.TID 0000.0001) %MON dynstat_vvel_mean            =   1.5167020974853E-05
(PID.TID 0000.0001) %MON dynstat_vvel_sd              =   9.3448612497792E-04
(PID.TID 0000.0001) %MON dynstat_vvel_del2            =   1.9373489845255E-06
(PID.TID 0000.0001) %MON dynstat_wvel_max             =   2.1432019012371E-03
(PID.TID 0000.0001) %MON dynstat_wvel_min             =  -2.0873139286089E-03
(PID.TID 0000.0001) %MON dynstat_wvel_mean            =   7.2912078583819E-09
(PID.TID 0000.0001) %MON dynstat_wvel_sd              =   3.4815277188634E-05
(PID.TID 0000.0001) %MON dynstat_wvel_del2            =   1.3840468722408E-07
(PID.TID 0000.0001) %MON dynstat_theta_max            =   1.2000000000000E+00
(PID.TID 0000.0001) %MON dynstat_theta_min            =  -1.0000000000000E+00
(PID.TID 0000.0001) %MON dynstat_theta_mean           =   5.6822523204625E-01
(PID.TID 0000.0001) %MON dynstat_theta_sd             =   8.6811335898876E-01
(PID.TID 0000.0001) %MON dynstat_theta_del2           =   6.1145659274897E-06
(PID.TID 0000.0001) %MON dynstat_salt_max             =   3.4700000000000E+01
(PID.TID 0000.0001) %MON dynstat_salt_min             =   3.4000000000000E+01
(PID.TID 0000.0001) %MON dynstat_salt_mean            =   3.4498904132640E+01
(PID.TID 0000.0001) %MON dynstat_salt_sd              =   2.7618713844007E-01
(PID.TID 0000.0001) %MON dynstat_salt_del2            =   2.4235803294592E-06
(PID.TID 0000.0001) %MON advcfl_uvel_max              =   6.1149358393701E-03
(PID.TID 0000.0001) %MON advcfl_vvel_max              =   3.8610515311604E-03
(PID.TID 0000.0001) %MON advcfl_wvel_max              =   1.0716009506185E-02
(PID.TID 0000.0001) %MON advcfl_W_hf_max              =   1.0716009506185E-02
(PID.TID 0000.0001) %MON pe_b_mean                    =  -8.2966965012653E-01
(PID.TID 0000.0001) %MON ke_max                       =   1.5955805421941E-03
(PID.TID 0000.0001) %MON ke_mean                      =   1.9928090657759E-06
(PID.TID 0000.0001) %MON ke_vol                       =   4.2724651920479E+12
(PID.TID 0000.0001) // =======================================================
(PID.TID 0000.0001) // End MONITOR dynamic field statistics
(PID.TID 0000.0001) // =======================================================
(PID.TID 0000.0001) // =======================================================
(PID.TID 0000.0001) // Begin OBCS MONITOR field statistics
(PID.TID 0000.0001) // =======================================================
(PID.TID 0000.0001) %MON obc_N_vVel_max               =   1.4866695416145E-05
(PID.TID 0000.0001) %MON obc_N_vVel_min               =   1.4866695416145E-05
(PID.TID 0000.0001) %MON obc_N_vVel_mean              =   1.4866695416145E-05
(PID.TID 0000.0001) %MON obc_N_vVel_sd                =  -1.0055414321348E-23
(PID.TID 0000.0001) %MON obc_N_vVel_Int               =   9.8120189746557E+02
(PID.TID 0000.0001) // =======================================================
(PID.TID 0000.0001) // End OBCS MONITOR field statistics
(PID.TID 0000.0001) // =======================================================
 cg2d: Sum(rhs),rhsMax =   4.50803653474965E+00  2.99965928636788E+02
(PID.TID 0000.0001)      cg2d_init_res =   1.12679728449189E-05
(PID.TID 0000.0001)      cg2d_iters(min,last) =      -1      85
(PID.TID 0000.0001)      cg2d_last_res =   8.54024325163076E-12
(PID.TID 0000.0001) // =======================================================
(PID.TID 0000.0001) // Begin MONITOR dynamic field statistics
(PID.TID 0000.0001) // =======================================================
(PID.TID 0000.0001) %MON time_tsnumber                =                  1469
(PID.TID 0000.0001) %MON time_secondsf                =   1.4690000000000E+05
(PID.TID 0000.0001) %MON dynstat_eta_max              =   5.8021455201643E+00
(PID.TID 0000.0001) %MON dynstat_eta_min              =  -1.4193839857924E+01
(PID.TID 0000.0001) %MON dynstat_eta_mean             =  -2.5041803064347E+00
(PID.TID 0000.0001) %MON dynstat_eta_sd               =   4.9501511429548E+00
(PID.TID 0000.0001) %MON dynstat_eta_del2             =   2.0716915353048E-01
(PID.TID 0000.0001) %MON dynstat_uvel_max             =   1.3635835914910E-02
(PID.TID 0000.0001) %MON dynstat_uvel_min             =  -6.1268137578911E-02
(PID.TID 0000.0001) %MON dynstat_uvel_mean            =  -1.0559535965295E-07
(PID.TID 0000.0001) %MON dynstat_uvel_sd              =   1.7857158742081E-03
(PID.TID 0000.0001) %MON dynstat_uvel_del2            =   2.7414955877987E-06
(PID.TID 0000.0001) %MON dynstat_vvel_max             =   3.8658241731774E-02
(PID.TID 0000.0001) %MON dynstat_vvel_min             =  -2.1281275121405E-02
(PID.TID 0000.0001) %MON dynstat_vvel_mean            =   1.5168884699364E-05
(PID.TID 0000.0001) %MON dynstat_vvel_sd              =   9.3627184633807E-04
(PID.TID 0000.0001) %MON dynstat_vvel_del2            =   1.9410929611280E-06
(PID.TID 0000.0001) %MON dynstat_wvel_max             =   2.1463009438146E-03
(PID.TID 0000.0001) %MON dynstat_wvel_min             =  -2.0905761255337E-03
(PID.TID 0000.0001) %MON dynstat_wvel_mean            =   7.3057544388921E-09
(PID.TID 0000.0001) %MON dynstat_wvel_sd              =   3.4860580256610E-05
(PID.TID 0000.0001) %MON dynstat_wvel_del2            =   1.3858423035448E-07
(PID.TID 0000.0001) %MON dynstat_theta_max            =   1.2000000000000E+00
(PID.TID 0000.0001) %MON dynstat_theta_min            =  -1.0000000000000E+00
(PID.TID 0000.0001) %MON dynstat_theta_mean           =   5.6822349037888E-01
(PID.TID 0000.0001) %MON dynstat_theta_sd             =   8.6811245932415E-01
(PID.TID 0000.0001) %MON dynstat_theta_del2           =   6.1258757721553E-06
(PID.TID 0000.0001) %MON dynstat_salt_max             =   3.4700000000000E+01
(PID.TID 0000.0001) %MON dynstat_salt_min             =   3.4000000000000E+01
(PID.TID 0000.0001) %MON dynstat_salt_mean            =   3.4498903435416E+01
(PID.TID 0000.0001) %MON dynstat_salt_sd              =   2.7618679534950E-01
(PID.TID 0000.0001) %MON dynstat_salt_del2            =   2.4280740717397E-06
(PID.TID 0000.0001) %MON advcfl_uvel_max              =   6.1268137578911E-03
(PID.TID 0000.0001) %MON advcfl_vvel_max              =   3.8658241731774E-03
(PID.TID 0000.0001) %MON advcfl_wvel_max              =   1.0731504719073E-02
(PID.TID 0000.0001) %MON advcfl_W_hf_max              =   1.0731504719073E-02
(PID.TID 0000.0001) %MON pe_b_mean                    =  -8.2966944557481E-01
(PID.TID 0000.0001) %MON ke_max                       =   1.6028742831321E-03
(PID.TID 0000.0001) %MON ke_mean                      =   2.0011816311456E-06
(PID.TID 0000.0001) %MON ke_vol                       =   4.2724651804412E+12
(PID.TID 0000.0001) // =======================================================
(PID.TID 0000.0001) // End MONITOR dynamic field statistics
(PID.TID 0000.0001) // =======================================================
(PID.TID 0000.0001) // =======================================================
(PID.TID 0000.0001) // Begin OBCS MONITOR field statistics
(PID.TID 0000.0001) // =======================================================
(PID.TID 0000.0001) %MON obc_N_vVel_max               =   1.4867348129925E-05
(PID.TID 0000.0001) %MON obc_N_vVel_min               =   1.4867348129925E-05
(PID.TID 0000.0001) %MON obc_N_vVel_mean              =   1.4867348129925E-05
(PID.TID 0000.0001) %MON obc_N_vVel_sd                =  -1.4682455872816E-23
(PID.TID 0000.0001) %MON obc_N_vVel_Int               =   9.8124497657507E+02
(PID.TID 0000.0001) // =======================================================
(PID.TID 0000.0001) // End OBCS MONITOR field statistics
(PID.TID 0000.0001) // =======================================================
 cg2d: Sum(rhs),rhsMax =   4.50803882137768E+00  2.99966004857933E+02
(PID.TID 0000.0001)      cg2d_init_res =   1.12860390577303E-05
(PID.TID 0000.0001)      cg2d_iters(min,last) =      -1      85
(PID.TID 0000.0001)      cg2d_last_res =   8.55413321304664E-12
(PID.TID 0000.0001) // =======================================================
(PID.TID 0000.0001) // Begin MONITOR dynamic field statistics
(PID.TID 0000.0001) // =======================================================
(PID.TID 0000.0001) %MON time_tsnumber                =                  1470
(PID.TID 0000.0001) %MON time_secondsf                =   1.4700000000000E+05
(PID.TID 0000.0001) %MON dynstat_eta_max              =   5.8021791110197E+00
(PID.TID 0000.0001) %MON dynstat_eta_min              =  -1.4193869646310E+01
(PID.TID 0000.0001) %MON dynstat_eta_mean             =  -2.5041822129502E+00
(PID.TID 0000.0001) %MON dynstat_eta_sd               =   4.9501523972095E+00
(PID.TID 0000.0001) %MON dynstat_eta_del2             =   2.0716921075396E-01
(PID.TID 0000.0001) %MON dynstat_uvel_max             =   1.3665826518761E-02
(PID.TID 0000.0001) %MON dynstat_uvel_min             =  -6.1386973451548E-02
(PID.TID 0000.0001) %MON dynstat_uvel_mean            =  -1.0564699885000E-07
(PID.TID 0000.0001) %MON dynstat_uvel_sd              =   1.7895555909966E-03
(PID.TID 0000.0001) %MON dynstat_uvel_del2            =   2.7481323578619E-06
(PID.TID 0000.0001) %MON dynstat_vvel_max             =   3.8705930816771E-02
(PID.TID 0000.0001) %MON dynstat_vvel_min             =  -2.1331215461279E-02
(PID.TID 0000.0001) %MON dynstat_vvel_mean            =   1.5172244765083E-05
(PID.TID 0000.0001) %MON dynstat_vvel_sd              =   9.3806189594033E-04
(PID.TID 0000.0001) %MON dynstat_vvel_del2            =   1.9448457534856E-06
(PID.TID 0000.0001) %MON dynstat_wvel_max             =   2.1493980776317E-03
(PID.TID 0000.0001) %MON dynstat_wvel_min             =  -2.0938383090926E-03
(PID.TID 0000.0001) %MON dynstat_wvel_mean            =   7.3218505393926E-09
(PID.TID 0000.0001) %MON dynstat_wvel_sd              =   3.4909669331348E-05
(PID.TID 0000.0001) %MON dynstat_wvel_del2            =   1.3877036569693E-07
(PID.TID 0000.0001) %MON dynstat_theta_max            =   1.2000000000000E+00
(PID.TID 0000.0001) %MON dynstat_theta_min            =  -1.0000000000000E+00
(PID.TID 0000.0001) %MON dynstat_theta_mean           =   5.6822174570443E-01
(PID.TID 0000.0001) %MON dynstat_theta_sd             =   8.6811155835231E-01
(PID.TID 0000.0001) %MON dynstat_theta_del2           =   6.1371974040524E-06
(PID.TID 0000.0001) %MON dynstat_salt_max             =   3.4700000000000E+01
(PID.TID 0000.0001) %MON dynstat_salt_min             =   3.4000000000000E+01
(PID.TID 0000.0001) %MON dynstat_salt_mean            =   3.4498902736987E+01
(PID.TID 0000.0001) %MON dynstat_salt_sd              =   2.7618645178090E-01
(PID.TID 0000.0001) %MON dynstat_salt_del2            =   2.4325729660011E-06
(PID.TID 0000.0001) %MON advcfl_uvel_max              =   6.1386973451548E-03
(PID.TID 0000.0001) %MON advcfl_vvel_max              =   3.8705930816771E-03
(PID.TID 0000.0001) %MON advcfl_wvel_max              =   1.0746990388158E-02
(PID.TID 0000.0001) %MON advcfl_W_hf_max              =   1.0746990388158E-02
(PID.TID 0000.0001) %MON pe_b_mean                    =  -8.2966923318601E-01
(PID.TID 0000.0001) %MON ke_max                       =   1.6101940143913E-03
(PID.TID 0000.0001) %MON ke_mean                      =   2.0095871393667E-06
(PID.TID 0000.0001) %MON ke_vol                       =   4.2724651689798E+12
(PID.TID 0000.0001) // =======================================================
(PID.TID 0000.0001) // End MONITOR dynamic field statistics
(PID.TID 0000.0001) // =======================================================
(PID.TID 0000.0001) // =======================================================
(PID.TID 0000.0001) // Begin OBCS MONITOR field statistics
(PID.TID 0000.0001) // =======================================================
(PID.TID 0000.0001) %MON obc_N_vVel_max               =   1.4869322887463E-05
(PID.TID 0000.0001) %MON obc_N_vVel_min               =   1.4869322887462E-05
(PID.TID 0000.0001) %MON obc_N_vVel_mean              =   1.4869322887463E-05
(PID.TID 0000.0001) %MON obc_N_vVel_sd                =  -1.3002245253568E-23
(PID.TID 0000.0001) %MON obc_N_vVel_Int               =   9.8137531057254E+02
(PID.TID 0000.0001) // =======================================================
(PID.TID 0000.0001) // End OBCS MONITOR field statistics
(PID.TID 0000.0001) // =======================================================
 cg2d: Sum(rhs),rhsMax =   4.50804106649518E+00  2.99966081250087E+02
(PID.TID 0000.0001)      cg2d_init_res =   1.13043464225148E-05
(PID.TID 0000.0001)      cg2d_iters(min,last) =      -1      85
(PID.TID 0000.0001)      cg2d_last_res =   8.56769209486079E-12
(PID.TID 0000.0001) // =======================================================
(PID.TID 0000.0001) // Begin MONITOR dynamic field statistics
(PID.TID 0000.0001) // =======================================================
(PID.TID 0000.0001) %MON time_tsnumber                =                  1471
(PID.TID 0000.0001) %MON time_secondsf                =   1.4710000000000E+05
(PID.TID 0000.0001) %MON dynstat_eta_max              =   5.8022127990361E+00
(PID.TID 0000.0001) %MON dynstat_eta_min              =  -1.4193899441701E+01
(PID.TID 0000.0001) %MON dynstat_eta_mean             =  -2.5041840978352E+00
(PID.TID 0000.0001) %MON dynstat_eta_sd               =   4.9501536463998E+00
(PID.TID 0000.0001) %MON dynstat_eta_del2             =   2.0716926806219E-01
(PID.TID 0000.0001) %MON dynstat_uvel_max             =   1.3695862855446E-02
(PID.TID 0000.0001) %MON dynstat_uvel_min             =  -6.1505865061041E-02
(PID.TID 0000.0001) %MON dynstat_uvel_mean            =  -1.0569527120349E-07
(PID.TID 0000.0001) %MON dynstat_uvel_sd              =   1.7934017294317E-03
(PID.TID 0000.0001) %MON dynstat_uvel_del2            =   2.7547846214102E-06
(PID.TID 0000.0001) %MON dynstat_vvel_max             =   3.8753582342603E-02
(PID.TID 0000.0001) %MON dynstat_vvel_min             =  -2.1381240304166E-02
(PID.TID 0000.0001) %MON dynstat_vvel_mean            =   1.5177029694257E-05
(PID.TID 0000.0001) %MON dynstat_vvel_sd              =   9.3985640281376E-04
(PID.TID 0000.0001) %MON dynstat_vvel_del2            =   1.9486075598383E-06
(PID.TID 0000.0001) %MON dynstat_wvel_max             =   2.1524932828601E-03
(PID.TID 0000.0001) %MON dynstat_wvel_min             =  -2.0971004681547E-03
(PID.TID 0000.0001) %MON dynstat_wvel_mean            =   7.3391746266514E-09
(PID.TID 0000.0001) %MON dynstat_wvel_sd              =   3.4962933533087E-05
(PID.TID 0000.0001) %MON dynstat_wvel_del2            =   1.3896400439872E-07
(PID.TID 0000.0001) %MON dynstat_theta_max            =   1.2000000000000E+00
(PID.TID 0000.0001) %MON dynstat_theta_min            =  -1.0000000000000E+00
(PID.TID 0000.0001) %MON dynstat_theta_mean           =   5.6821999801966E-01
(PID.TID 0000.0001) %MON dynstat_theta_sd             =   8.6811065606656E-01
(PID.TID 0000.0001) %MON dynstat_theta_del2           =   6.1485302630020E-06
(PID.TID 0000.0001) %MON dynstat_salt_max             =   3.4700000000000E+01
(PID.TID 0000.0001) %MON dynstat_salt_min             =   3.4000000000000E+01
(PID.TID 0000.0001) %MON dynstat_salt_mean            =   3.4498902037353E+01
(PID.TID 0000.0001) %MON dynstat_salt_sd              =   2.7618610773233E-01
(PID.TID 0000.0001) %MON dynstat_salt_del2            =   2.4370768811700E-06
(PID.TID 0000.0001) %MON advcfl_uvel_max              =   6.1505865061041E-03
(PID.TID 0000.0001) %MON advcfl_vvel_max              =   3.8753582342603E-03
(PID.TID 0000.0001) %MON advcfl_wvel_max              =   1.0762466414300E-02
(PID.TID 0000.0001) %MON advcfl_W_hf_max              =   1.0762466414300E-02
(PID.TID 0000.0001) %MON pe_b_mean                    =  -8.2966901330257E-01
(PID.TID 0000.0001) %MON ke_max                       =   1.6175397667905E-03
(PID.TID 0000.0001) %MON ke_mean                      =   2.0180258016424E-06
(PID.TID 0000.0001) %MON ke_vol                       =   4.2724651576551E+12
(PID.TID 0000.0001) // =======================================================
(PID.TID 0000.0001) // End MONITOR dynamic field statistics
(PID.TID 0000.0001) // =======================================================
(PID.TID 0000.0001) // =======================================================
(PID.TID 0000.0001) // Begin OBCS MONITOR field statistics
(PID.TID 0000.0001) // =======================================================
(PID.TID 0000.0001) %MON obc_N_vVel_max               =   1.4872575769633E-05
(PID.TID 0000.0001) %MON obc_N_vVel_min               =   1.4872575769633E-05
(PID.TID 0000.0001) %MON obc_N_vVel_mean              =   1.4872575769633E-05
(PID.TID 0000.0001) %MON obc_N_vVel_sd                =   3.5734578081023E-12
(PID.TID 0000.0001) %MON obc_N_vVel_Int               =   9.8159000079576E+02
(PID.TID 0000.0001) // =======================================================
(PID.TID 0000.0001) // End OBCS MONITOR field statistics
(PID.TID 0000.0001) // =======================================================
 cg2d: Sum(rhs),rhsMax =   4.50804327234209E+00  2.99966157820831E+02
(PID.TID 0000.0001)      cg2d_init_res =   1.13228230271072E-05
(PID.TID 0000.0001)      cg2d_iters(min,last) =      -1      85
(PID.TID 0000.0001)      cg2d_last_res =   8.58082597993093E-12
(PID.TID 0000.0001) // =======================================================
(PID.TID 0000.0001) // Begin MONITOR dynamic field statistics
(PID.TID 0000.0001) // =======================================================
(PID.TID 0000.0001) %MON time_tsnumber                =                  1472
(PID.TID 0000.0001) %MON time_secondsf                =   1.4720000000000E+05
(PID.TID 0000.0001) %MON dynstat_eta_max              =   5.8022465818470E+00
(PID.TID 0000.0001) %MON dynstat_eta_min              =  -1.4193929245402E+01
(PID.TID 0000.0001) %MON dynstat_eta_mean             =  -2.5041859623972E+00
(PID.TID 0000.0001) %MON dynstat_eta_sd               =   4.9501548908713E+00
(PID.TID 0000.0001) %MON dynstat_eta_del2             =   2.0716932545540E-01
(PID.TID 0000.0001) %MON dynstat_uvel_max             =   1.3725944986954E-02
(PID.TID 0000.0001) %MON dynstat_uvel_min             =  -6.1624811454174E-02
(PID.TID 0000.0001) %MON dynstat_uvel_mean            =  -1.0573871672261E-07
(PID.TID 0000.0001) %MON dynstat_uvel_sd              =   1.7972542867254E-03
(PID.TID 0000.0001) %MON dynstat_uvel_del2            =   2.7614524033641E-06
(PID.TID 0000.0001) %MON dynstat_vvel_max             =   3.8801196079389E-02
(PID.TID 0000.0001) %MON dynstat_vvel_min             =  -2.1431349487647E-02
(PID.TID 0000.0001) %MON dynstat_vvel_mean            =   1.5183138438338E-05
(PID.TID 0000.0001) %MON dynstat_vvel_sd              =   9.4165545211964E-04
(PID.TID 0000.0001) %MON dynstat_vvel_del2            =   1.9523784638177E-06
(PID.TID 0000.0001) %MON dynstat_wvel_max             =   2.1555865397679E-03
(PID.TID 0000.0001) %MON dynstat_wvel_min             =  -2.1003625905269E-03
(PID.TID 0000.0001) %MON dynstat_wvel_mean            =   7.3573814682223E-09
(PID.TID 0000.0001) %MON dynstat_wvel_sd              =   3.5020620856194E-05
(PID.TID 0000.0001) %MON dynstat_wvel_del2            =   1.3916567847746E-07
(PID.TID 0000.0001) %MON dynstat_theta_max            =   1.2000000000000E+00
(PID.TID 0000.0001) %MON dynstat_theta_min            =  -1.0000000000000E+00
(PID.TID 0000.0001) %MON dynstat_theta_mean           =   5.6821824732140E-01
(PID.TID 0000.0001) %MON dynstat_theta_sd             =   8.6810975246210E-01
(PID.TID 0000.0001) %MON dynstat_theta_del2           =   6.1598735041957E-06
(PID.TID 0000.0001) %MON dynstat_salt_max             =   3.4700000000000E+01
(PID.TID 0000.0001) %MON dynstat_salt_min             =   3.4000000000000E+01
(PID.TID 0000.0001) %MON dynstat_salt_mean            =   3.4498901336511E+01
(PID.TID 0000.0001) %MON dynstat_salt_sd              =   2.7618576320242E-01
(PID.TID 0000.0001) %MON dynstat_salt_del2            =   2.4415855139238E-06
(PID.TID 0000.0001) %MON advcfl_uvel_max              =   6.1624811454174E-03
(PID.TID 0000.0001) %MON advcfl_vvel_max              =   3.8801196079389E-03
(PID.TID 0000.0001) %MON advcfl_wvel_max              =   1.0777932698840E-02
(PID.TID 0000.0001) %MON advcfl_W_hf_max              =   1.0777932698840E-02
(PID.TID 0000.0001) %MON pe_b_mean                    =  -8.2966878623929E-01
(PID.TID 0000.0001) %MON ke_max                       =   1.6249115706843E-03
(PID.TID 0000.0001) %MON ke_mean                      =   2.0264977883629E-06
(PID.TID 0000.0001) %MON ke_vol                       =   4.2724651464589E+12
(PID.TID 0000.0001) // =======================================================
(PID.TID 0000.0001) // End MONITOR dynamic field statistics
(PID.TID 0000.0001) // =======================================================
(PID.TID 0000.0001) // =======================================================
(PID.TID 0000.0001) // Begin OBCS MONITOR field statistics
(PID.TID 0000.0001) // =======================================================
(PID.TID 0000.0001) %MON obc_N_vVel_max               =   1.4877036337237E-05
(PID.TID 0000.0001) %MON obc_N_vVel_min               =   1.4877036337237E-05
(PID.TID 0000.0001) %MON obc_N_vVel_mean              =   1.4877036337237E-05
(PID.TID 0000.0001) %MON obc_N_vVel_sd                =   2.2393709973121E-12
(PID.TID 0000.0001) %MON obc_N_vVel_Int               =   9.8188439825764E+02
(PID.TID 0000.0001) // =======================================================
(PID.TID 0000.0001) // End OBCS MONITOR field statistics
(PID.TID 0000.0001) // =======================================================
 cg2d: Sum(rhs),rhsMax =   4.50804544101424E+00  2.99966234574729E+02
(PID.TID 0000.0001)      cg2d_init_res =   1.13413898922865E-05
(PID.TID 0000.0001)      cg2d_iters(min,last) =      -1      85
(PID.TID 0000.0001)      cg2d_last_res =   8.59349869312598E-12
(PID.TID 0000.0001) // =======================================================
(PID.TID 0000.0001) // Begin MONITOR dynamic field statistics
(PID.TID 0000.0001) // =======================================================
(PID.TID 0000.0001) %MON time_tsnumber                =                  1473
(PID.TID 0000.0001) %MON time_secondsf                =   1.4730000000000E+05
(PID.TID 0000.0001) %MON dynstat_eta_max              =   5.8022804573525E+00
(PID.TID 0000.0001) %MON dynstat_eta_min              =  -1.4193959058553E+01
(PID.TID 0000.0001) %MON dynstat_eta_mean             =  -2.5041878078386E+00
(PID.TID 0000.0001) %MON dynstat_eta_sd               =   4.9501561309093E+00
(PID.TID 0000.0001) %MON dynstat_eta_del2             =   2.0716938293348E-01
(PID.TID 0000.0001) %MON dynstat_uvel_max             =   1.3756072954910E-02
(PID.TID 0000.0001) %MON dynstat_uvel_min             =  -6.1743811675826E-02
(PID.TID 0000.0001) %MON dynstat_uvel_mean            =  -1.0577597216323E-07
(PID.TID 0000.0001) %MON dynstat_uvel_sd              =   1.8011132599651E-03
(PID.TID 0000.0001) %MON dynstat_uvel_del2            =   2.7681357209852E-06
(PID.TID 0000.0001) %MON dynstat_vvel_max             =   3.8848771791752E-02
(PID.TID 0000.0001) %MON dynstat_vvel_min             =  -2.1481542852786E-02
(PID.TID 0000.0001) %MON dynstat_vvel_mean            =   1.5190442783647E-05
(PID.TID 0000.0001) %MON dynstat_vvel_sd              =   9.4345908321425E-04
(PID.TID 0000.0001) %MON dynstat_vvel_del2            =   1.9561584392371E-06
(PID.TID 0000.0001) %MON dynstat_wvel_max             =   2.1586778286703E-03
(PID.TID 0000.0001) %MON dynstat_wvel_min             =  -2.1036246630040E-03
(PID.TID 0000.0001) %MON dynstat_wvel_mean            =   7.3761096565549E-09
(PID.TID 0000.0001) %MON dynstat_wvel_sd              =   3.5082833041630E-05
(PID.TID 0000.0001) %MON dynstat_wvel_del2            =   1.3937555173821E-07
(PID.TID 0000.0001) %MON dynstat_theta_max            =   1.2000000000000E+00
(PID.TID 0000.0001) %MON dynstat_theta_min            =  -1.0000000000000E+00
(PID.TID 0000.0001) %MON dynstat_theta_mean           =   5.6821649360661E-01
(PID.TID 0000.0001) %MON dynstat_theta_sd             =   8.6810884753446E-01
(PID.TID 0000.0001) %MON dynstat_theta_del2           =   6.1712275219686E-06
(PID.TID 0000.0001) %MON dynstat_salt_max             =   3.4700000000000E+01
(PID.TID 0000.0001) %MON dynstat_salt_min             =   3.4000000000000E+01
(PID.TID 0000.0001) %MON dynstat_salt_mean            =   3.4498900634460E+01
(PID.TID 0000.0001) %MON dynstat_salt_sd              =   2.7618541818972E-01
(PID.TID 0000.0001) %MON dynstat_salt_del2            =   2.4460990557864E-06
(PID.TID 0000.0001) %MON advcfl_uvel_max              =   6.1743811675826E-03
(PID.TID 0000.0001) %MON advcfl_vvel_max              =   3.8848771791752E-03
(PID.TID 0000.0001) %MON advcfl_wvel_max              =   1.0793389143352E-02
(PID.TID 0000.0001) %MON advcfl_W_hf_max              =   1.0793389143352E-02
(PID.TID 0000.0001) %MON pe_b_mean                    =  -8.2966855227695E-01
(PID.TID 0000.0001) %MON ke_max                       =   1.6323094559961E-03
(PID.TID 0000.0001) %MON ke_mean                      =   2.0350032268325E-06
(PID.TID 0000.0001) %MON ke_vol                       =   4.2724651353834E+12
(PID.TID 0000.0001) // =======================================================
(PID.TID 0000.0001) // End MONITOR dynamic field statistics
(PID.TID 0000.0001) // =======================================================
(PID.TID 0000.0001) // =======================================================
(PID.TID 0000.0001) // Begin OBCS MONITOR field statistics
(PID.TID 0000.0001) // =======================================================
(PID.TID 0000.0001) %MON obc_N_vVel_max               =   1.4882609272981E-05
(PID.TID 0000.0001) %MON obc_N_vVel_min               =   1.4882609272981E-05
(PID.TID 0000.0001) %MON obc_N_vVel_mean              =   1.4882609272981E-05
(PID.TID 0000.0001) %MON obc_N_vVel_sd                =  -7.5221736954041E-24
(PID.TID 0000.0001) %MON obc_N_vVel_Int               =   9.8225221201677E+02
(PID.TID 0000.0001) // =======================================================
(PID.TID 0000.0001) // End OBCS MONITOR field statistics
(PID.TID 0000.0001) // =======================================================
 cg2d: Sum(rhs),rhsMax =   4.50804757441585E+00  2.99966311513403E+02
(PID.TID 0000.0001)      cg2d_init_res =   1.13599716930068E-05
(PID.TID 0000.0001)      cg2d_iters(min,last) =      -1      85
(PID.TID 0000.0001)      cg2d_last_res =   8.60546174642346E-12
(PID.TID 0000.0001) // =======================================================
(PID.TID 0000.0001) // Begin MONITOR dynamic field statistics
(PID.TID 0000.0001) // =======================================================
(PID.TID 0000.0001) %MON time_tsnumber                =                  1474
(PID.TID 0000.0001) %MON time_secondsf                =   1.4740000000000E+05
(PID.TID 0000.0001) %MON dynstat_eta_max              =   5.8023144237647E+00
(PID.TID 0000.0001) %MON dynstat_eta_min              =  -1.4193988882130E+01
(PID.TID 0000.0001) %MON dynstat_eta_mean             =  -2.5041896352305E+00
(PID.TID 0000.0001) %MON dynstat_eta_sd               =   4.9501573667470E+00
(PID.TID 0000.0001) %MON dynstat_eta_del2             =   2.0716944049681E-01
(PID.TID 0000.0001) %MON dynstat_uvel_max             =   1.3786246805802E-02
(PID.TID 0000.0001) %MON dynstat_uvel_min             =  -6.1862864763776E-02
(PID.TID 0000.0001) %MON dynstat_uvel_mean            =  -1.0580579321714E-07
(PID.TID 0000.0001) %MON dynstat_uvel_sd              =   1.8049786462904E-03
(PID.TID 0000.0001) %MON dynstat_uvel_del2            =   2.7748345979012E-06
(PID.TID 0000.0001) %MON dynstat_vvel_max             =   3.8896309239505E-02
(PID.TID 0000.0001) %MON dynstat_vvel_min             =  -2.1531820243954E-02
(PID.TID 0000.0001) %MON dynstat_vvel_mean            =   1.5198790277692E-05
(PID.TID 0000.0001) %MON dynstat_vvel_sd              =   9.4526728844236E-04
(PID.TID 0000.0001) %MON dynstat_vvel_del2            =   1.9599473581215E-06
(PID.TID 0000.0001) %MON dynstat_wvel_max             =   2.1617671299679E-03
(PID.TID 0000.0001) %MON dynstat_wvel_min             =  -2.1068866714659E-03
(PID.TID 0000.0001) %MON dynstat_wvel_mean            =   7.3949888270069E-09
(PID.TID 0000.0001) %MON dynstat_wvel_sd              =   3.5149526610283E-05
(PID.TID 0000.0001) %MON dynstat_wvel_del2            =   1.3959345332244E-07
(PID.TID 0000.0001) %MON dynstat_theta_max            =   1.2000000000000E+00
(PID.TID 0000.0001) %MON dynstat_theta_min            =  -1.0000000000000E+00
(PID.TID 0000.0001) %MON dynstat_theta_mean           =   5.6821473687233E-01
(PID.TID 0000.0001) %MON dynstat_theta_sd             =   8.6810794127984E-01
(PID.TID 0000.0001) %MON dynstat_theta_del2           =   6.1825922740916E-06
(PID.TID 0000.0001) %MON dynstat_salt_max             =   3.4700000000000E+01
(PID.TID 0000.0001) %MON dynstat_salt_min             =   3.4000000000000E+01
(PID.TID 0000.0001) %MON dynstat_salt_mean            =   3.4498899931199E+01
(PID.TID 0000.0001) %MON dynstat_salt_sd              =   2.7618507269309E-01
(PID.TID 0000.0001) %MON dynstat_salt_del2            =   2.4506174941364E-06
(PID.TID 0000.0001) %MON advcfl_uvel_max              =   6.1862864763776E-03
(PID.TID 0000.0001) %MON advcfl_vvel_max              =   3.8896309239505E-03
(PID.TID 0000.0001) %MON advcfl_wvel_max              =   1.0808835649839E-02
(PID.TID 0000.0001) %MON advcfl_W_hf_max              =   1.0808835649839E-02
(PID.TID 0000.0001) %MON pe_b_mean                    =  -8.2966831165629E-01
(PID.TID 0000.0001) %MON ke_max                       =   1.6397334519510E-03
(PID.TID 0000.0001) %MON ke_mean                      =   2.0435422000721E-06
(PID.TID 0000.0001) %MON ke_vol                       =   4.2724651244214E+12
(PID.TID 0000.0001) // =======================================================
(PID.TID 0000.0001) // End MONITOR dynamic field statistics
(PID.TID 0000.0001) // =======================================================
(PID.TID 0000.0001) // =======================================================
(PID.TID 0000.0001) // Begin OBCS MONITOR field statistics
(PID.TID 0000.0001) // =======================================================
(PID.TID 0000.0001) %MON obc_N_vVel_max               =   1.4889176486556E-05
(PID.TID 0000.0001) %MON obc_N_vVel_min               =   1.4889176486556E-05
(PID.TID 0000.0001) %MON obc_N_vVel_mean              =   1.4889176486556E-05
(PID.TID 0000.0001) %MON obc_N_vVel_sd                =  -1.0081263715490E-23
(PID.TID 0000.0001) %MON obc_N_vVel_Int               =   9.8268564811271E+02
(PID.TID 0000.0001) // =======================================================
(PID.TID 0000.0001) // End OBCS MONITOR field statistics
(PID.TID 0000.0001) // =======================================================
 cg2d: Sum(rhs),rhsMax =   4.50804967422015E+00  2.99966388635471E+02
(PID.TID 0000.0001)      cg2d_init_res =   1.13784876490842E-05
(PID.TID 0000.0001)      cg2d_iters(min,last) =      -1      85
(PID.TID 0000.0001)      cg2d_last_res =   8.61670115098162E-12
(PID.TID 0000.0001) // =======================================================
(PID.TID 0000.0001) // Begin MONITOR dynamic field statistics
(PID.TID 0000.0001) // =======================================================
(PID.TID 0000.0001) %MON time_tsnumber                =                  1475
(PID.TID 0000.0001) %MON time_secondsf                =   1.4750000000000E+05
(PID.TID 0000.0001) %MON dynstat_eta_max              =   5.8023484796428E+00
(PID.TID 0000.0001) %MON dynstat_eta_min              =  -1.4194018716892E+01
(PID.TID 0000.0001) %MON dynstat_eta_mean             =  -2.5041914454910E+00
(PID.TID 0000.0001) %MON dynstat_eta_sd               =   4.9501585985473E+00
(PID.TID 0000.0001) %MON dynstat_eta_del2             =   2.0716949814545E-01
(PID.TID 0000.0001) %MON dynstat_uvel_max             =   1.3816466587659E-02
(PID.TID 0000.0001) %MON dynstat_uvel_min             =  -6.1981969753999E-02
(PID.TID 0000.0001) %MON dynstat_uvel_mean            =  -1.0582709624078E-07
(PID.TID 0000.0001) %MON dynstat_uvel_sd              =   1.8088504428820E-03
(PID.TID 0000.0001) %MON dynstat_uvel_del2            =   2.7815490580321E-06
(PID.TID 0000.0001) %MON dynstat_vvel_max             =   3.8943808178292E-02
(PID.TID 0000.0001) %MON dynstat_vvel_min             =  -2.1582181507281E-02
(PID.TID 0000.0001) %MON dynstat_vvel_mean            =   1.5208007675004E-05
(PID.TID 0000.0001) %MON dynstat_vvel_sd              =   9.4708001419674E-04
(PID.TID 0000.0001) %MON dynstat_vvel_del2            =   1.9637450051399E-06
(PID.TID 0000.0001) %MON dynstat_wvel_max             =   2.1648544241172E-03
(PID.TID 0000.0001) %MON dynstat_wvel_min             =  -2.1101486008161E-03
(PID.TID 0000.0001) %MON dynstat_wvel_mean            =   7.4136496724678E-09
(PID.TID 0000.0001) %MON dynstat_wvel_sd              =   3.5220519269456E-05
(PID.TID 0000.0001) %MON dynstat_wvel_del2            =   1.3981892956645E-07
(PID.TID 0000.0001) %MON dynstat_theta_max            =   1.2000000000000E+00
(PID.TID 0000.0001) %MON dynstat_theta_min            =  -1.0000000000000E+00
(PID.TID 0000.0001) %MON dynstat_theta_mean           =   5.6821297711567E-01
(PID.TID 0000.0001) %MON dynstat_theta_sd             =   8.6810703369330E-01
(PID.TID 0000.0001) %MON dynstat_theta_del2           =   6.1939680676357E-06
(PID.TID 0000.0001) %MON dynstat_salt_max             =   3.4700000000000E+01
(PID.TID 0000.0001) %MON dynstat_salt_min             =   3.4000000000000E+01
(PID.TID 0000.0001) %MON dynstat_salt_mean            =   3.4498899226728E+01
(PID.TID 0000.0001) %MON dynstat_salt_sd              =   2.7618472671104E-01
(PID.TID 0000.0001) %MON dynstat_salt_del2            =   2.4551409127720E-06
(PID.TID 0000.0001) %MON advcfl_uvel_max              =   6.1981969753999E-03
(PID.TID 0000.0001) %MON advcfl_vvel_max              =   3.8943808178292E-03
(PID.TID 0000.0001) %MON advcfl_wvel_max              =   1.0824272120586E-02
(PID.TID 0000.0001) %MON advcfl_W_hf_max              =   1.0824272120586E-02
(PID.TID 0000.0001) %MON pe_b_mean                    =  -8.2966806457293E-01
(PID.TID 0000.0001) %MON ke_max                       =   1.6471835873104E-03
(PID.TID 0000.0001) %MON ke_mean                      =   2.0521147474288E-06
(PID.TID 0000.0001) %MON ke_vol                       =   4.2724651135667E+12
(PID.TID 0000.0001) // =======================================================
(PID.TID 0000.0001) // End MONITOR dynamic field statistics
(PID.TID 0000.0001) // =======================================================
(PID.TID 0000.0001) // =======================================================
(PID.TID 0000.0001) // Begin OBCS MONITOR field statistics
(PID.TID 0000.0001) // =======================================================
(PID.TID 0000.0001) %MON obc_N_vVel_max               =   1.4896599807257E-05
(PID.TID 0000.0001) %MON obc_N_vVel_min               =   1.4896599807256E-05
(PID.TID 0000.0001) %MON obc_N_vVel_mean              =   1.4896599807256E-05
(PID.TID 0000.0001) %MON obc_N_vVel_sd                =   3.2355841246403E-12
(PID.TID 0000.0001) %MON obc_N_vVel_Int               =   9.8317558727890E+02
(PID.TID 0000.0001) // =======================================================
(PID.TID 0000.0001) // End OBCS MONITOR field statistics
(PID.TID 0000.0001) // =======================================================
 cg2d: Sum(rhs),rhsMax =   4.50805174183089E+00  2.99966465936759E+02
(PID.TID 0000.0001)      cg2d_init_res =   1.13968593452543E-05
(PID.TID 0000.0001)      cg2d_iters(min,last) =      -1      85
(PID.TID 0000.0001)      cg2d_last_res =   8.62716245106442E-12
(PID.TID 0000.0001) // =======================================================
(PID.TID 0000.0001) // Begin MONITOR dynamic field statistics
(PID.TID 0000.0001) // =======================================================
(PID.TID 0000.0001) %MON time_tsnumber                =                  1476
(PID.TID 0000.0001) %MON time_secondsf                =   1.4760000000000E+05
(PID.TID 0000.0001) %MON dynstat_eta_max              =   5.8023826239392E+00
(PID.TID 0000.0001) %MON dynstat_eta_min              =  -1.4194048563403E+01
(PID.TID 0000.0001) %MON dynstat_eta_mean             =  -2.5041932393649E+00
(PID.TID 0000.0001) %MON dynstat_eta_sd               =   4.9501598264026E+00
(PID.TID 0000.0001) %MON dynstat_eta_del2             =   2.0716955587941E-01
(PID.TID 0000.0001) %MON dynstat_uvel_max             =   1.3846732348926E-02
(PID.TID 0000.0001) %MON dynstat_uvel_min             =  -6.2101125681501E-02
(PID.TID 0000.0001) %MON dynstat_uvel_mean            =  -1.0583899232240E-07
(PID.TID 0000.0001) %MON dynstat_uvel_sd              =   1.8127286469518E-03
(PID.TID 0000.0001) %MON dynstat_uvel_del2            =   2.7882791245764E-06
(PID.TID 0000.0001) %MON dynstat_vvel_max             =   3.8991268360532E-02
(PID.TID 0000.0001) %MON dynstat_vvel_min             =  -2.1632626517031E-02
(PID.TID 0000.0001) %MON dynstat_vvel_mean            =   1.5217904785748E-05
(PID.TID 0000.0001) %MON dynstat_vvel_sd              =   9.4889716328439E-04
(PID.TID 0000.0001) %MON dynstat_vvel_del2            =   1.9675510950755E-06
(PID.TID 0000.0001) %MON dynstat_wvel_max             =   2.1679396916431E-03
(PID.TID 0000.0001) %MON dynstat_wvel_min             =  -2.1134104288693E-03
(PID.TID 0000.0001) %MON dynstat_wvel_mean            =   7.4317308409821E-09
(PID.TID 0000.0001) %MON dynstat_wvel_sd              =   3.5295501220254E-05
(PID.TID 0000.0001) %MON dynstat_wvel_del2            =   1.4005130689589E-07
(PID.TID 0000.0001) %MON dynstat_theta_max            =   1.2000000000000E+00
(PID.TID 0000.0001) %MON dynstat_theta_min            =  -1.0000000000000E+00
(PID.TID 0000.0001) %MON dynstat_theta_mean           =   5.6821121433368E-01
(PID.TID 0000.0001) %MON dynstat_theta_sd             =   8.6810612477106E-01
(PID.TID 0000.0001) %MON dynstat_theta_del2           =   6.2053552519555E-06
(PID.TID 0000.0001) %MON dynstat_salt_max             =   3.4700000000000E+01
(PID.TID 0000.0001) %MON dynstat_salt_min             =   3.4000000000000E+01
(PID.TID 0000.0001) %MON dynstat_salt_mean            =   3.4498898521043E+01
(PID.TID 0000.0001) %MON dynstat_salt_sd              =   2.7618438024260E-01
(PID.TID 0000.0001) %MON dynstat_salt_del2            =   2.4596694063584E-06
(PID.TID 0000.0001) %MON advcfl_uvel_max              =   6.2101125681501E-03
(PID.TID 0000.0001) %MON advcfl_vvel_max              =   3.8991268360532E-03
(PID.TID 0000.0001) %MON advcfl_wvel_max              =   1.0839698458216E-02
(PID.TID 0000.0001) %MON advcfl_W_hf_max              =   1.0839698458216E-02
(PID.TID 0000.0001) %MON pe_b_mean                    =  -8.2966781117333E-01
(PID.TID 0000.0001) %MON ke_max                       =   1.6546598904208E-03
(PID.TID 0000.0001) %MON ke_mean                      =   2.0607208664419E-06
(PID.TID 0000.0001) %MON ke_vol                       =   4.2724651028138E+12
(PID.TID 0000.0001) // =======================================================
(PID.TID 0000.0001) // End MONITOR dynamic field statistics
(PID.TID 0000.0001) // =======================================================
(PID.TID 0000.0001) // =======================================================
(PID.TID 0000.0001) // Begin OBCS MONITOR field statistics
(PID.TID 0000.0001) // =======================================================
(PID.TID 0000.0001) %MON obc_N_vVel_max               =   1.4904724082414E-05
(PID.TID 0000.0001) %MON obc_N_vVel_min               =   1.4904724082413E-05
(PID.TID 0000.0001) %MON obc_N_vVel_mean              =   1.4904724082413E-05
(PID.TID 0000.0001) %MON obc_N_vVel_sd                =   3.2713375207864E-12
(PID.TID 0000.0001) %MON obc_N_vVel_Int               =   9.8371178943928E+02
(PID.TID 0000.0001) // =======================================================
(PID.TID 0000.0001) // End OBCS MONITOR field statistics
(PID.TID 0000.0001) // =======================================================
 cg2d: Sum(rhs),rhsMax =   4.50805377835766E+00  2.99966543410311E+02
(PID.TID 0000.0001)      cg2d_init_res =   1.14150151156340E-05
(PID.TID 0000.0001)      cg2d_iters(min,last) =      -1      85
(PID.TID 0000.0001)      cg2d_last_res =   8.63677175368302E-12
(PID.TID 0000.0001) // =======================================================
(PID.TID 0000.0001) // Begin MONITOR dynamic field statistics
(PID.TID 0000.0001) // =======================================================
(PID.TID 0000.0001) %MON time_tsnumber                =                  1477
(PID.TID 0000.0001) %MON time_secondsf                =   1.4770000000000E+05
(PID.TID 0000.0001) %MON dynstat_eta_max              =   5.8024168559939E+00
(PID.TID 0000.0001) %MON dynstat_eta_min              =  -1.4194078421993E+01
(PID.TID 0000.0001) %MON dynstat_eta_mean             =  -2.5041950174106E+00
(PID.TID 0000.0001) %MON dynstat_eta_sd               =   4.9501610503348E+00
(PID.TID 0000.0001) %MON dynstat_eta_del2             =   2.0716961369866E-01
(PID.TID 0000.0001) %MON dynstat_uvel_max             =   1.3877044151517E-02
(PID.TID 0000.0001) %MON dynstat_uvel_min             =  -6.2220331578459E-02
(PID.TID 0000.0001) %MON dynstat_uvel_mean            =  -1.0584080711083E-07
(PID.TID 0000.0001) %MON dynstat_uvel_sd              =   1.8166132557402E-03
(PID.TID 0000.0001) %MON dynstat_uvel_del2            =   2.7950248199213E-06
(PID.TID 0000.0001) %MON dynstat_vvel_max             =   3.9038689535349E-02
(PID.TID 0000.0001) %MON dynstat_vvel_min             =  -2.1683155175527E-02
(PID.TID 0000.0001) %MON dynstat_vvel_mean            =   1.5228278680241E-05
(PID.TID 0000.0001) %MON dynstat_vvel_sd              =   9.5071859859141E-04
(PID.TID 0000.0001) %MON dynstat_vvel_del2            =   1.9713652918114E-06
(PID.TID 0000.0001) %MON dynstat_wvel_max             =   2.1710229130055E-03
(PID.TID 0000.0001) %MON dynstat_wvel_min             =  -2.1166721268519E-03
(PID.TID 0000.0001) %MON dynstat_wvel_mean            =   7.4488865125040E-09
(PID.TID 0000.0001) %MON dynstat_wvel_sd              =   3.5374050322443E-05
(PID.TID 0000.0001) %MON dynstat_wvel_del2            =   1.4028976072567E-07
(PID.TID 0000.0001) %MON dynstat_theta_max            =   1.2000000000000E+00
(PID.TID 0000.0001) %MON dynstat_theta_min            =  -1.0000000000000E+00
(PID.TID 0000.0001) %MON dynstat_theta_mean           =   5.6820944852349E-01
(PID.TID 0000.0001) %MON dynstat_theta_sd             =   8.6810521451086E-01
(PID.TID 0000.0001) %MON dynstat_theta_del2           =   6.2167542780413E-06
(PID.TID 0000.0001) %MON dynstat_salt_max             =   3.4700000000000E+01
(PID.TID 0000.0001) %MON dynstat_salt_min             =   3.4000000000000E+01
(PID.TID 0000.0001) %MON dynstat_salt_mean            =   3.4498897814146E+01
(PID.TID 0000.0001) %MON dynstat_salt_sd              =   2.7618403328686E-01
(PID.TID 0000.0001) %MON dynstat_salt_del2            =   2.4642031015287E-06
(PID.TID 0000.0001) %MON advcfl_uvel_max              =   6.2220331578459E-03
(PID.TID 0000.0001) %MON advcfl_vvel_max              =   3.9038689535349E-03
(PID.TID 0000.0001) %MON advcfl_wvel_max              =   1.0855114565027E-02
(PID.TID 0000.0001) %MON advcfl_W_hf_max              =   1.0855114565027E-02
(PID.TID 0000.0001) %MON pe_b_mean                    =  -8.2966755155201E-01
(PID.TID 0000.0001) %MON ke_max                       =   1.6621623891054E-03
(PID.TID 0000.0001) %MON ke_mean                      =   2.0693605159841E-06
(PID.TID 0000.0001) %MON ke_vol                       =   4.2724650921582E+12
(PID.TID 0000.0001) // =======================================================
(PID.TID 0000.0001) // End MONITOR dynamic field statistics
(PID.TID 0000.0001) // =======================================================
(PID.TID 0000.0001) // =======================================================
(PID.TID 0000.0001) // Begin OBCS MONITOR field statistics
(PID.TID 0000.0001) // =======================================================
(PID.TID 0000.0001) %MON obc_N_vVel_max               =   1.4913380652399E-05
(PID.TID 0000.0001) %MON obc_N_vVel_min               =   1.4913380652399E-05
(PID.TID 0000.0001) %MON obc_N_vVel_mean              =   1.4913380652399E-05
(PID.TID 0000.0001) %MON obc_N_vVel_sd                =   1.4735498321915E-12
(PID.TID 0000.0001) %MON obc_N_vVel_Int               =   9.8428312305834E+02
(PID.TID 0000.0001) // =======================================================
(PID.TID 0000.0001) // End OBCS MONITOR field statistics
(PID.TID 0000.0001) // =======================================================
 cg2d: Sum(rhs),rhsMax =   4.50805578459069E+00  2.99966621046687E+02
(PID.TID 0000.0001)      cg2d_init_res =   1.14328884351337E-05
(PID.TID 0000.0001)      cg2d_iters(min,last) =      -1      85
(PID.TID 0000.0001)      cg2d_last_res =   8.64549255634362E-12
(PID.TID 0000.0001) // =======================================================
(PID.TID 0000.0001) // Begin MONITOR dynamic field statistics
(PID.TID 0000.0001) // =======================================================
(PID.TID 0000.0001) %MON time_tsnumber                =                  1478
(PID.TID 0000.0001) %MON time_secondsf                =   1.4780000000000E+05
(PID.TID 0000.0001) %MON dynstat_eta_max              =   5.8024511755706E+00
(PID.TID 0000.0001) %MON dynstat_eta_min              =  -1.4194108292779E+01
(PID.TID 0000.0001) %MON dynstat_eta_mean             =  -2.5041967799882E+00
(PID.TID 0000.0001) %MON dynstat_eta_sd               =   4.9501622702951E+00
(PID.TID 0000.0001) %MON dynstat_eta_del2             =   2.0716967160311E-01
(PID.TID 0000.0001) %MON dynstat_uvel_max             =   1.3907402040026E-02
(PID.TID 0000.0001) %MON dynstat_uvel_min             =  -6.2339586474797E-02
(PID.TID 0000.0001) %MON dynstat_uvel_mean            =  -1.0583209730679E-07
(PID.TID 0000.0001) %MON dynstat_uvel_sd              =   1.8205042665657E-03
(PID.TID 0000.0001) %MON dynstat_uvel_del2            =   2.8017861658732E-06
(PID.TID 0000.0001) %MON dynstat_vvel_max             =   3.9086071449415E-02
(PID.TID 0000.0001) %MON dynstat_vvel_min             =  -2.1733767384379E-02
(PID.TID 0000.0001) %MON dynstat_vvel_mean            =   1.5238918109087E-05
(PID.TID 0000.0001) %MON dynstat_vvel_sd              =   9.5254414775044E-04
(PID.TID 0000.0001) %MON dynstat_vvel_del2            =   1.9751872259329E-06
(PID.TID 0000.0001) %MON dynstat_wvel_max             =   2.1741040685666E-03
(PID.TID 0000.0001) %MON dynstat_wvel_min             =  -2.1199336654014E-03
(PID.TID 0000.0001) %MON dynstat_wvel_mean            =   7.4647932056629E-09
(PID.TID 0000.0001) %MON dynstat_wvel_sd              =   3.5455650092306E-05
(PID.TID 0000.0001) %MON dynstat_wvel_del2            =   1.4053338289375E-07
(PID.TID 0000.0001) %MON dynstat_theta_max            =   1.2000000000000E+00
(PID.TID 0000.0001) %MON dynstat_theta_min            =  -1.0000000000000E+00
(PID.TID 0000.0001) %MON dynstat_theta_mean           =   5.6820767968225E-01
(PID.TID 0000.0001) %MON dynstat_theta_sd             =   8.6810430291039E-01
(PID.TID 0000.0001) %MON dynstat_theta_del2           =   6.2281657908993E-06
(PID.TID 0000.0001) %MON dynstat_salt_max             =   3.4700000000000E+01
(PID.TID 0000.0001) %MON dynstat_salt_min             =   3.4000000000000E+01
(PID.TID 0000.0001) %MON dynstat_salt_mean            =   3.4498897106033E+01
(PID.TID 0000.0001) %MON dynstat_salt_sd              =   2.7618368584339E-01
(PID.TID 0000.0001) %MON dynstat_salt_del2            =   2.4687421721874E-06
(PID.TID 0000.0001) %MON advcfl_uvel_max              =   6.2339586474797E-03
(PID.TID 0000.0001) %MON advcfl_vvel_max              =   3.9086071449415E-03
(PID.TID 0000.0001) %MON advcfl_wvel_max              =   1.0870520342833E-02
(PID.TID 0000.0001) %MON advcfl_W_hf_max              =   1.0870520342833E-02
(PID.TID 0000.0001) %MON pe_b_mean                    =  -8.2966728574977E-01
(PID.TID 0000.0001) %MON ke_max                       =   1.6696911106840E-03
(PID.TID 0000.0001) %MON ke_mean                      =   2.0780336204936E-06
(PID.TID 0000.0001) %MON ke_vol                       =   4.2724650815966E+12
(PID.TID 0000.0001) // =======================================================
(PID.TID 0000.0001) // End MONITOR dynamic field statistics
(PID.TID 0000.0001) // =======================================================
(PID.TID 0000.0001) // =======================================================
(PID.TID 0000.0001) // Begin OBCS MONITOR field statistics
(PID.TID 0000.0001) // =======================================================
(PID.TID 0000.0001) %MON obc_N_vVel_max               =   1.4922391062138E-05
(PID.TID 0000.0001) %MON obc_N_vVel_min               =   1.4922391062137E-05
(PID.TID 0000.0001) %MON obc_N_vVel_mean              =   1.4922391062137E-05
(PID.TID 0000.0001) %MON obc_N_vVel_sd                =   4.0162198576253E-12
(PID.TID 0000.0001) %MON obc_N_vVel_Int               =   9.8487781010107E+02
(PID.TID 0000.0001) // =======================================================
(PID.TID 0000.0001) // End OBCS MONITOR field statistics
(PID.TID 0000.0001) // =======================================================
 cg2d: Sum(rhs),rhsMax =   4.50805776098661E+00  2.99966698834155E+02
(PID.TID 0000.0001)      cg2d_init_res =   1.14504198869670E-05
(PID.TID 0000.0001)      cg2d_iters(min,last) =      -1      85
(PID.TID 0000.0001)      cg2d_last_res =   8.65331038930737E-12
(PID.TID 0000.0001) // =======================================================
(PID.TID 0000.0001) // Begin MONITOR dynamic field statistics
(PID.TID 0000.0001) // =======================================================
(PID.TID 0000.0001) %MON time_tsnumber                =                  1479
(PID.TID 0000.0001) %MON time_secondsf                =   1.4790000000000E+05
(PID.TID 0000.0001) %MON dynstat_eta_max              =   5.8024855828517E+00
(PID.TID 0000.0001) %MON dynstat_eta_min              =  -1.4194138175644E+01
(PID.TID 0000.0001) %MON dynstat_eta_mean             =  -2.5041985272534E+00
(PID.TID 0000.0001) %MON dynstat_eta_sd               =   4.9501634861654E+00
(PID.TID 0000.0001) %MON dynstat_eta_del2             =   2.0716972959264E-01
(PID.TID 0000.0001) %MON dynstat_uvel_max             =   1.3937806062582E-02
(PID.TID 0000.0001) %MON dynstat_uvel_min             =  -6.2458889387602E-02
(PID.TID 0000.0001) %MON dynstat_uvel_mean            =  -1.0581266077305E-07
(PID.TID 0000.0001) %MON dynstat_uvel_sd              =   1.8244016769236E-03
(PID.TID 0000.0001) %MON dynstat_uvel_del2            =   2.8085631850841E-06
(PID.TID 0000.0001) %MON dynstat_vvel_max             =   3.9133413849963E-02
(PID.TID 0000.0001) %MON dynstat_vvel_min             =  -2.1784463043927E-02
(PID.TID 0000.0001) %MON dynstat_vvel_mean            =   1.5249608063382E-05
(PID.TID 0000.0001) %MON dynstat_vvel_sd              =   9.5437360863043E-04
(PID.TID 0000.0001) %MON dynstat_vvel_del2            =   1.9790165109283E-06
(PID.TID 0000.0001) %MON dynstat_wvel_max             =   2.1771831388924E-03
(PID.TID 0000.0001) %MON dynstat_wvel_min             =  -2.1231950138037E-03
(PID.TID 0000.0001) %MON dynstat_wvel_mean            =   7.4791566656946E-09
(PID.TID 0000.0001) %MON dynstat_wvel_sd              =   3.5539709509589E-05
(PID.TID 0000.0001) %MON dynstat_wvel_del2            =   1.4078124315572E-07
(PID.TID 0000.0001) %MON dynstat_theta_max            =   1.2000000000000E+00
(PID.TID 0000.0001) %MON dynstat_theta_min            =  -1.0000000000000E+00
(PID.TID 0000.0001) %MON dynstat_theta_mean           =   5.6820590780714E-01
(PID.TID 0000.0001) %MON dynstat_theta_sd             =   8.6810338996516E-01
(PID.TID 0000.0001) %MON dynstat_theta_del2           =   6.2395903092940E-06
(PID.TID 0000.0001) %MON dynstat_salt_max             =   3.4700000000000E+01
(PID.TID 0000.0001) %MON dynstat_salt_min             =   3.4000000000000E+01
(PID.TID 0000.0001) %MON dynstat_salt_mean            =   3.4498896396705E+01
(PID.TID 0000.0001) %MON dynstat_salt_sd              =   2.7618333791091E-01
(PID.TID 0000.0001) %MON dynstat_salt_del2            =   2.4732867522172E-06
(PID.TID 0000.0001) %MON advcfl_uvel_max              =   6.2458889387602E-03
(PID.TID 0000.0001) %MON advcfl_vvel_max              =   3.9133413849963E-03
(PID.TID 0000.0001) %MON advcfl_wvel_max              =   1.0885915694462E-02
(PID.TID 0000.0001) %MON advcfl_W_hf_max              =   1.0885915694462E-02
(PID.TID 0000.0001) %MON pe_b_mean                    =  -8.2966701375303E-01
(PID.TID 0000.0001) %MON ke_max                       =   1.6772460816528E-03
(PID.TID 0000.0001) %MON ke_mean                      =   2.0867400751292E-06
(PID.TID 0000.0001) %MON ke_vol                       =   4.2724650711269E+12
(PID.TID 0000.0001) // =======================================================
(PID.TID 0000.0001) // End MONITOR dynamic field statistics
(PID.TID 0000.0001) // =======================================================
(PID.TID 0000.0001) // =======================================================
(PID.TID 0000.0001) // Begin OBCS MONITOR field statistics
(PID.TID 0000.0001) // =======================================================
(PID.TID 0000.0001) %MON obc_N_vVel_max               =   1.4931570947267E-05
(PID.TID 0000.0001) %MON obc_N_vVel_min               =   1.4931570947266E-05
(PID.TID 0000.0001) %MON obc_N_vVel_mean              =   1.4931570947266E-05
(PID.TID 0000.0001) %MON obc_N_vVel_sd                =   3.7187936035926E-12
(PID.TID 0000.0001) %MON obc_N_vVel_Int               =   9.8548368251957E+02
(PID.TID 0000.0001) // =======================================================
(PID.TID 0000.0001) // End OBCS MONITOR field statistics
(PID.TID 0000.0001) // =======================================================
 cg2d: Sum(rhs),rhsMax =   4.50805970765873E+00  2.99966776759010E+02
(PID.TID 0000.0001)      cg2d_init_res =   1.14675561583435E-05
(PID.TID 0000.0001)      cg2d_iters(min,last) =      -1      85
(PID.TID 0000.0001)      cg2d_last_res =   8.66021730789133E-12
(PID.TID 0000.0001) // =======================================================
(PID.TID 0000.0001) // Begin MONITOR dynamic field statistics
(PID.TID 0000.0001) // =======================================================
(PID.TID 0000.0001) %MON time_tsnumber                =                  1480
(PID.TID 0000.0001) %MON time_secondsf                =   1.4800000000000E+05
(PID.TID 0000.0001) %MON dynstat_eta_max              =   5.8025200784357E+00
(PID.TID 0000.0001) %MON dynstat_eta_min              =  -1.4194168070258E+01
(PID.TID 0000.0001) %MON dynstat_eta_mean             =  -2.5042002591547E+00
(PID.TID 0000.0001) %MON dynstat_eta_sd               =   4.9501646977614E+00
(PID.TID 0000.0001) %MON dynstat_eta_del2             =   2.0716978766708E-01
(PID.TID 0000.0001) %MON dynstat_uvel_max             =   1.3968256267063E-02
(PID.TID 0000.0001) %MON dynstat_uvel_min             =  -6.2578239104873E-02
(PID.TID 0000.0001) %MON dynstat_uvel_mean            =  -1.0578252905603E-07
(PID.TID 0000.0001) %MON dynstat_uvel_sd              =   1.8283054844575E-03
(PID.TID 0000.0001) %MON dynstat_uvel_del2            =   2.8153558997452E-06
(PID.TID 0000.0001) %MON dynstat_vvel_max             =   3.9180716485893E-02
(PID.TID 0000.0001) %MON dynstat_vvel_min             =  -2.1835242051806E-02
(PID.TID 0000.0001) %MON dynstat_vvel_mean            =   1.5260134409426E-05
(PID.TID 0000.0001) %MON dynstat_vvel_sd              =   9.5620675589072E-04
(PID.TID 0000.0001) %MON dynstat_vvel_del2            =   1.9828527587451E-06
(PID.TID 0000.0001) %MON dynstat_wvel_max             =   2.1802601047701E-03
(PID.TID 0000.0001) %MON dynstat_wvel_min             =  -2.1264561404792E-03
(PID.TID 0000.0001) %MON dynstat_wvel_mean            =   7.4917180885942E-09
(PID.TID 0000.0001) %MON dynstat_wvel_sd              =   3.5625583610339E-05
(PID.TID 0000.0001) %MON dynstat_wvel_del2            =   1.4103243872514E-07
(PID.TID 0000.0001) %MON dynstat_theta_max            =   1.2000000000000E+00
(PID.TID 0000.0001) %MON dynstat_theta_min            =  -1.0000000000000E+00
(PID.TID 0000.0001) %MON dynstat_theta_mean           =   5.6820413289526E-01
(PID.TID 0000.0001) %MON dynstat_theta_sd             =   8.6810247567289E-01
(PID.TID 0000.0001) %MON dynstat_theta_del2           =   6.2510286385206E-06
(PID.TID 0000.0001) %MON dynstat_salt_max             =   3.4700000000000E+01
(PID.TID 0000.0001) %MON dynstat_salt_min             =   3.4000000000000E+01
(PID.TID 0000.0001) %MON dynstat_salt_mean            =   3.4498895686159E+01
(PID.TID 0000.0001) %MON dynstat_salt_sd              =   2.7618298948865E-01
(PID.TID 0000.0001) %MON dynstat_salt_del2            =   2.4778370718855E-06
(PID.TID 0000.0001) %MON advcfl_uvel_max              =   6.2578239104873E-03
(PID.TID 0000.0001) %MON advcfl_vvel_max              =   3.9180716485893E-03
(PID.TID 0000.0001) %MON advcfl_wvel_max              =   1.0901300523850E-02
(PID.TID 0000.0001) %MON advcfl_W_hf_max              =   1.0901300523850E-02
(PID.TID 0000.0001) %MON pe_b_mean                    =  -8.2966673549425E-01
(PID.TID 0000.0001) %MON ke_max                       =   1.6848273210846E-03
(PID.TID 0000.0001) %MON ke_mean                      =   2.0954797517800E-06
(PID.TID 0000.0001) %MON ke_vol                       =   4.2724650607481E+12
(PID.TID 0000.0001) // =======================================================
(PID.TID 0000.0001) // End MONITOR dynamic field statistics
(PID.TID 0000.0001) // =======================================================
(PID.TID 0000.0001) // =======================================================
(PID.TID 0000.0001) // Begin OBCS MONITOR field statistics
(PID.TID 0000.0001) // =======================================================
(PID.TID 0000.0001) %MON obc_N_vVel_max               =   1.4940734042371E-05
(PID.TID 0000.0001) %MON obc_N_vVel_min               =   1.4940734042371E-05
(PID.TID 0000.0001) %MON obc_N_vVel_mean              =   1.4940734042371E-05
(PID.TID 0000.0001) %MON obc_N_vVel_sd                =  -1.0029564927205E-23
(PID.TID 0000.0001) %MON obc_N_vVel_Int               =   9.8608844679651E+02
(PID.TID 0000.0001) // =======================================================
(PID.TID 0000.0001) // End OBCS MONITOR field statistics
(PID.TID 0000.0001) // =======================================================
 cg2d: Sum(rhs),rhsMax =   4.50806162437768E+00  2.99966854805865E+02
(PID.TID 0000.0001)      cg2d_init_res =   1.14842672736876E-05
(PID.TID 0000.0001)      cg2d_iters(min,last) =      -1      85
(PID.TID 0000.0001)      cg2d_last_res =   8.66625393359618E-12
(PID.TID 0000.0001) // =======================================================
(PID.TID 0000.0001) // Begin MONITOR dynamic field statistics
(PID.TID 0000.0001) // =======================================================
(PID.TID 0000.0001) %MON time_tsnumber                =                  1481
(PID.TID 0000.0001) %MON time_secondsf                =   1.4810000000000E+05
(PID.TID 0000.0001) %MON dynstat_eta_max              =   5.8025546633174E+00
(PID.TID 0000.0001) %MON dynstat_eta_min              =  -1.4194197976086E+01
(PID.TID 0000.0001) %MON dynstat_eta_mean             =  -2.5042019754363E+00
(PID.TID 0000.0001) %MON dynstat_eta_sd               =   4.9501659048363E+00
(PID.TID 0000.0001) %MON dynstat_eta_del2             =   2.0716984582627E-01
(PID.TID 0000.0001) %MON dynstat_uvel_max             =   1.3998752700489E-02
(PID.TID 0000.0001) %MON dynstat_uvel_min             =  -6.2697634415089E-02
(PID.TID 0000.0001) %MON dynstat_uvel_mean            =  -1.0574196603805E-07
(PID.TID 0000.0001) %MON dynstat_uvel_sd              =   1.8322156869282E-03
(PID.TID 0000.0001) %MON dynstat_uvel_del2            =   2.8221643318149E-06
(PID.TID 0000.0001) %MON dynstat_vvel_max             =   3.9227979107787E-02
(PID.TID 0000.0001) %MON dynstat_vvel_min             =  -2.1886104302437E-02
(PID.TID 0000.0001) %MON dynstat_vvel_mean            =   1.5270288445544E-05
(PID.TID 0000.0001) %MON dynstat_vvel_sd              =   9.5804334797807E-04
(PID.TID 0000.0001) %MON dynstat_vvel_del2            =   1.9866955924831E-06
(PID.TID 0000.0001) %MON dynstat_wvel_max             =   2.1833349469980E-03
(PID.TID 0000.0001) %MON dynstat_wvel_min             =  -2.1297170128508E-03
(PID.TID 0000.0001) %MON dynstat_wvel_mean            =   7.5022595767871E-09
(PID.TID 0000.0001) %MON dynstat_wvel_sd              =   3.5712593987118E-05
(PID.TID 0000.0001) %MON dynstat_wvel_del2            =   1.4128612896850E-07
(PID.TID 0000.0001) %MON dynstat_theta_max            =   1.2000000000000E+00
(PID.TID 0000.0001) %MON dynstat_theta_min            =  -1.0000000000000E+00
(PID.TID 0000.0001) %MON dynstat_theta_mean           =   5.6820235494368E-01
(PID.TID 0000.0001) %MON dynstat_theta_sd             =   8.6810156003249E-01
(PID.TID 0000.0001) %MON dynstat_theta_del2           =   6.2624815423495E-06
(PID.TID 0000.0001) %MON dynstat_salt_max             =   3.4700000000000E+01
(PID.TID 0000.0001) %MON dynstat_salt_min             =   3.4000000000000E+01
(PID.TID 0000.0001) %MON dynstat_salt_mean            =   3.4498894974394E+01
(PID.TID 0000.0001) %MON dynstat_salt_sd              =   2.7618264057636E-01
(PID.TID 0000.0001) %MON dynstat_salt_del2            =   2.4823933313754E-06
(PID.TID 0000.0001) %MON advcfl_uvel_max              =   6.2697634415089E-03
(PID.TID 0000.0001) %MON advcfl_vvel_max              =   3.9227979107787E-03
(PID.TID 0000.0001) %MON advcfl_wvel_max              =   1.0916674734990E-02
(PID.TID 0000.0001) %MON advcfl_W_hf_max              =   1.0916674734990E-02
(PID.TID 0000.0001) %MON pe_b_mean                    =  -8.2966645085377E-01
(PID.TID 0000.0001) %MON ke_max                       =   1.6924348475100E-03
(PID.TID 0000.0001) %MON ke_mean                      =   2.1042525055638E-06
(PID.TID 0000.0001) %MON ke_vol                       =   4.2724650504606E+12
(PID.TID 0000.0001) // =======================================================
(PID.TID 0000.0001) // End MONITOR dynamic field statistics
(PID.TID 0000.0001) // =======================================================
(PID.TID 0000.0001) // =======================================================
(PID.TID 0000.0001) // Begin OBCS MONITOR field statistics
(PID.TID 0000.0001) // =======================================================
(PID.TID 0000.0001) %MON obc_N_vVel_max               =   1.4949696137329E-05
(PID.TID 0000.0001) %MON obc_N_vVel_min               =   1.4949696137329E-05
(PID.TID 0000.0001) %MON obc_N_vVel_mean              =   1.4949696137329E-05
(PID.TID 0000.0001) %MON obc_N_vVel_sd                =  -1.3364136771560E-23
(PID.TID 0000.0001) %MON obc_N_vVel_Int               =   9.8667994506374E+02
(PID.TID 0000.0001) // =======================================================
(PID.TID 0000.0001) // End OBCS MONITOR field statistics
(PID.TID 0000.0001) // =======================================================
 cg2d: Sum(rhs),rhsMax =   4.50806351057756E+00  2.99966932958057E+02
(PID.TID 0000.0001)      cg2d_init_res =   1.15005577905708E-05
(PID.TID 0000.0001)      cg2d_iters(min,last) =      -1      85
(PID.TID 0000.0001)      cg2d_last_res =   8.67143970326734E-12
(PID.TID 0000.0001) // =======================================================
(PID.TID 0000.0001) // Begin MONITOR dynamic field statistics
(PID.TID 0000.0001) // =======================================================
(PID.TID 0000.0001) %MON time_tsnumber                =                  1482
(PID.TID 0000.0001) %MON time_secondsf                =   1.4820000000000E+05
(PID.TID 0000.0001) %MON dynstat_eta_max              =   5.8025893388761E+00
(PID.TID 0000.0001) %MON dynstat_eta_min              =  -1.4194227892389E+01
(PID.TID 0000.0001) %MON dynstat_eta_mean             =  -2.5042036756446E+00
(PID.TID 0000.0001) %MON dynstat_eta_sd               =   4.9501671070898E+00
(PID.TID 0000.0001) %MON dynstat_eta_del2             =   2.0716990407018E-01
(PID.TID 0000.0001) %MON dynstat_uvel_max             =   1.4029295408577E-02
(PID.TID 0000.0001) %MON dynstat_uvel_min             =  -6.2817074114098E-02
(PID.TID 0000.0001) %MON dynstat_uvel_mean            =  -1.0569145351037E-07
(PID.TID 0000.0001) %MON dynstat_uvel_sd              =   1.8361322821446E-03
(PID.TID 0000.0001) %MON dynstat_uvel_del2            =   2.8289885024596E-06
(PID.TID 0000.0001) %MON dynstat_vvel_max             =   3.9275201468564E-02
(PID.TID 0000.0001) %MON dynstat_vvel_min             =  -2.1937049685727E-02
(PID.TID 0000.0001) %MON dynstat_vvel_mean            =   1.5279871309666E-05
(PID.TID 0000.0001) %MON dynstat_vvel_sd              =   9.5988313446552E-04
(PID.TID 0000.0001) %MON dynstat_vvel_del2            =   1.9905446587554E-06
(PID.TID 0000.0001) %MON dynstat_wvel_max             =   2.1864076463929E-03
(PID.TID 0000.0001) %MON dynstat_wvel_min             =  -2.1329775975573E-03
(PID.TID 0000.0001) %MON dynstat_wvel_mean            =   7.5106080589330E-09
(PID.TID 0000.0001) %MON dynstat_wvel_sd              =   3.5800048505330E-05
(PID.TID 0000.0001) %MON dynstat_wvel_del2            =   1.4154155374674E-07
(PID.TID 0000.0001) %MON dynstat_theta_max            =   1.2000000000000E+00
(PID.TID 0000.0001) %MON dynstat_theta_min            =  -1.0000000000000E+00
(PID.TID 0000.0001) %MON dynstat_theta_mean           =   5.6820057394949E-01
(PID.TID 0000.0001) %MON dynstat_theta_sd             =   8.6810064304324E-01
(PID.TID 0000.0001) %MON dynstat_theta_del2           =   6.2739498241598E-06
(PID.TID 0000.0001) %MON dynstat_salt_max             =   3.4700000000000E+01
(PID.TID 0000.0001) %MON dynstat_salt_min             =   3.4000000000000E+01
(PID.TID 0000.0001) %MON dynstat_salt_mean            =   3.4498894261410E+01
(PID.TID 0000.0001) %MON dynstat_salt_sd              =   2.7618229117384E-01
(PID.TID 0000.0001) %MON dynstat_salt_del2            =   2.4869557519738E-06
(PID.TID 0000.0001) %MON advcfl_uvel_max              =   6.2817074114098E-03
(PID.TID 0000.0001) %MON advcfl_vvel_max              =   3.9275201468564E-03
(PID.TID 0000.0001) %MON advcfl_wvel_max              =   1.0932038231965E-02
(PID.TID 0000.0001) %MON advcfl_W_hf_max              =   1.0932038231965E-02
(PID.TID 0000.0001) %MON pe_b_mean                    =  -8.2966615966264E-01
(PID.TID 0000.0001) %MON ke_max                       =   1.7000686791956E-03
(PID.TID 0000.0001) %MON ke_mean                      =   2.1130581816577E-06
(PID.TID 0000.0001) %MON ke_vol                       =   4.2724650402659E+12
(PID.TID 0000.0001) // =======================================================
(PID.TID 0000.0001) // End MONITOR dynamic field statistics
(PID.TID 0000.0001) // =======================================================
(PID.TID 0000.0001) // =======================================================
(PID.TID 0000.0001) // Begin OBCS MONITOR field statistics
(PID.TID 0000.0001) // =======================================================
(PID.TID 0000.0001) %MON obc_N_vVel_max               =   1.4958278997549E-05
(PID.TID 0000.0001) %MON obc_N_vVel_min               =   1.4958278997549E-05
(PID.TID 0000.0001) %MON obc_N_vVel_mean              =   1.4958278997549E-05
(PID.TID 0000.0001) %MON obc_N_vVel_sd                =   2.3187656159247E-12
(PID.TID 0000.0001) %MON obc_N_vVel_Int               =   9.8724641383822E+02
(PID.TID 0000.0001) // =======================================================
(PID.TID 0000.0001) // End OBCS MONITOR field statistics
(PID.TID 0000.0001) // =======================================================
 cg2d: Sum(rhs),rhsMax =   4.50806536536956E+00  2.99967011198001E+02
(PID.TID 0000.0001)      cg2d_init_res =   1.15163514979269E-05
(PID.TID 0000.0001)      cg2d_iters(min,last) =      -1      85
(PID.TID 0000.0001)      cg2d_last_res =   8.67582074926765E-12
(PID.TID 0000.0001) // =======================================================
(PID.TID 0000.0001) // Begin MONITOR dynamic field statistics
(PID.TID 0000.0001) // =======================================================
(PID.TID 0000.0001) %MON time_tsnumber                =                  1483
(PID.TID 0000.0001) %MON time_secondsf                =   1.4830000000000E+05
(PID.TID 0000.0001) %MON dynstat_eta_max              =   5.8026241068466E+00
(PID.TID 0000.0001) %MON dynstat_eta_min              =  -1.4194257818257E+01
(PID.TID 0000.0001) %MON dynstat_eta_mean             =  -2.5042053591391E+00
(PID.TID 0000.0001) %MON dynstat_eta_sd               =   4.9501683041673E+00
(PID.TID 0000.0001) %MON dynstat_eta_del2             =   2.0716996239845E-01
(PID.TID 0000.0001) %MON dynstat_uvel_max             =   1.4059884447681E-02
(PID.TID 0000.0001) %MON dynstat_uvel_min             =  -6.2936557003001E-02
(PID.TID 0000.0001) %MON dynstat_uvel_mean            =  -1.0563167230009E-07
(PID.TID 0000.0001) %MON dynstat_uvel_sd              =   1.8400552681345E-03
(PID.TID 0000.0001) %MON dynstat_uvel_del2            =   2.8358284340563E-06
(PID.TID 0000.0001) %MON dynstat_vvel_max             =   3.9322383324180E-02
(PID.TID 0000.0001) %MON dynstat_vvel_min             =  -2.1988078086212E-02
(PID.TID 0000.0001) %MON dynstat_vvel_mean            =   1.5288698146507E-05
(PID.TID 0000.0001) %MON dynstat_vvel_sd              =   9.6172586324133E-04
(PID.TID 0000.0001) %MON dynstat_vvel_del2            =   1.9943996259188E-06
(PID.TID 0000.0001) %MON dynstat_wvel_max             =   2.1894781838090E-03
(PID.TID 0000.0001) %MON dynstat_wvel_min             =  -2.1362378603635E-03
(PID.TID 0000.0001) %MON dynstat_wvel_mean            =   7.5166392976399E-09
(PID.TID 0000.0001) %MON dynstat_wvel_sd              =   3.5887259800250E-05
(PID.TID 0000.0001) %MON dynstat_wvel_del2            =   1.4179803730257E-07
(PID.TID 0000.0001) %MON dynstat_theta_max            =   1.2000000000000E+00
(PID.TID 0000.0001) %MON dynstat_theta_min            =  -1.0000000000000E+00
(PID.TID 0000.0001) %MON dynstat_theta_mean           =   5.6819878990969E-01
(PID.TID 0000.0001) %MON dynstat_theta_sd             =   8.6809972470370E-01
(PID.TID 0000.0001) %MON dynstat_theta_del2           =   6.2854343035433E-06
(PID.TID 0000.0001) %MON dynstat_salt_max             =   3.4700000000000E+01
(PID.TID 0000.0001) %MON dynstat_salt_min             =   3.4000000000000E+01
(PID.TID 0000.0001) %MON dynstat_salt_mean            =   3.4498893547205E+01
(PID.TID 0000.0001) %MON dynstat_salt_sd              =   2.7618194128090E-01
(PID.TID 0000.0001) %MON dynstat_salt_del2            =   2.4915245626924E-06
(PID.TID 0000.0001) %MON advcfl_uvel_max              =   6.2936557003001E-03
(PID.TID 0000.0001) %MON advcfl_vvel_max              =   3.9322383324180E-03
(PID.TID 0000.0001) %MON advcfl_wvel_max              =   1.0947390919045E-02
(PID.TID 0000.0001) %MON advcfl_W_hf_max              =   1.0947390919045E-02
(PID.TID 0000.0001) %MON pe_b_mean                    =  -8.2966586170634E-01
(PID.TID 0000.0001) %MON ke_max                       =   1.7077288340481E-03
(PID.TID 0000.0001) %MON ke_mean                      =   2.1218966224959E-06
(PID.TID 0000.0001) %MON ke_vol                       =   4.2724650301667E+12
(PID.TID 0000.0001) // =======================================================
(PID.TID 0000.0001) // End MONITOR dynamic field statistics
(PID.TID 0000.0001) // =======================================================
(PID.TID 0000.0001) // =======================================================
(PID.TID 0000.0001) // Begin OBCS MONITOR field statistics
(PID.TID 0000.0001) // =======================================================
(PID.TID 0000.0001) %MON obc_N_vVel_max               =   1.4966314123425E-05
(PID.TID 0000.0001) %MON obc_N_vVel_min               =   1.4966314123424E-05
(PID.TID 0000.0001) %MON obc_N_vVel_mean              =   1.4966314123424E-05
(PID.TID 0000.0001) %MON obc_N_vVel_sd                =   2.9992647701585E-12
(PID.TID 0000.0001) %MON obc_N_vVel_Int               =   9.8777673214601E+02
(PID.TID 0000.0001) // =======================================================
(PID.TID 0000.0001) // End OBCS MONITOR field statistics
(PID.TID 0000.0001) // =======================================================
 cg2d: Sum(rhs),rhsMax =   4.50806718756354E+00  2.99967089507518E+02
(PID.TID 0000.0001)      cg2d_init_res =   1.15316818485184E-05
(PID.TID 0000.0001)      cg2d_iters(min,last) =      -1      85
(PID.TID 0000.0001)      cg2d_last_res =   8.67945949109741E-12
(PID.TID 0000.0001) // =======================================================
(PID.TID 0000.0001) // Begin MONITOR dynamic field statistics
(PID.TID 0000.0001) // =======================================================
(PID.TID 0000.0001) %MON time_tsnumber                =                  1484
(PID.TID 0000.0001) %MON time_secondsf                =   1.4840000000000E+05
(PID.TID 0000.0001) %MON dynstat_eta_max              =   5.8026589692714E+00
(PID.TID 0000.0001) %MON dynstat_eta_min              =  -1.4194287752623E+01
(PID.TID 0000.0001) %MON dynstat_eta_mean             =  -2.5042070251070E+00
(PID.TID 0000.0001) %MON dynstat_eta_sd               =   4.9501694956746E+00
(PID.TID 0000.0001) %MON dynstat_eta_del2             =   2.0717002081085E-01
(PID.TID 0000.0001) %MON dynstat_uvel_max             =   1.4090519863815E-02
(PID.TID 0000.0001) %MON dynstat_uvel_min             =  -6.3056081888484E-02
(PID.TID 0000.0001) %MON dynstat_uvel_mean            =  -1.0556348457024E-07
(PID.TID 0000.0001) %MON dynstat_uvel_sd              =   1.8439846430335E-03
(PID.TID 0000.0001) %MON dynstat_uvel_del2            =   2.8426841490045E-06
(PID.TID 0000.0001) %MON dynstat_vvel_max             =   3.9369524434608E-02
(PID.TID 0000.0001) %MON dynstat_vvel_min             =  -2.2039189382202E-02
(PID.TID 0000.0001) %MON dynstat_vvel_mean            =   1.5296601921226E-05
(PID.TID 0000.0001) %MON dynstat_vvel_sd              =   9.6357128790437E-04
(PID.TID 0000.0001) %MON dynstat_vvel_del2            =   1.9982601903980E-06
(PID.TID 0000.0001) %MON dynstat_wvel_max             =   2.1925465401506E-03
(PID.TID 0000.0001) %MON dynstat_wvel_min             =  -2.1394977664107E-03
(PID.TID 0000.0001) %MON dynstat_wvel_mean            =   7.5202791055785E-09
(PID.TID 0000.0001) %MON dynstat_wvel_sd              =   3.5973562094291E-05
(PID.TID 0000.0001) %MON dynstat_wvel_del2            =   1.4205497547744E-07
(PID.TID 0000.0001) %MON dynstat_theta_max            =   1.2000000000000E+00
(PID.TID 0000.0001) %MON dynstat_theta_min            =  -1.0000000000000E+00
(PID.TID 0000.0001) %MON dynstat_theta_mean           =   5.6819700282126E-01
(PID.TID 0000.0001) %MON dynstat_theta_sd             =   8.6809880501327E-01
(PID.TID 0000.0001) %MON dynstat_theta_del2           =   6.2969355742983E-06
(PID.TID 0000.0001) %MON dynstat_salt_max             =   3.4700000000000E+01
(PID.TID 0000.0001) %MON dynstat_salt_min             =   3.4000000000000E+01
(PID.TID 0000.0001) %MON dynstat_salt_mean            =   3.4498892831777E+01
(PID.TID 0000.0001) %MON dynstat_salt_sd              =   2.7618159089744E-01
(PID.TID 0000.0001) %MON dynstat_salt_del2            =   2.4960999729781E-06
(PID.TID 0000.0001) %MON advcfl_uvel_max              =   6.3056081888484E-03
(PID.TID 0000.0001) %MON advcfl_vvel_max              =   3.9369524434608E-03
(PID.TID 0000.0001) %MON advcfl_wvel_max              =   1.0962732700753E-02
(PID.TID 0000.0001) %MON advcfl_W_hf_max              =   1.0962732700753E-02
(PID.TID 0000.0001) %MON pe_b_mean                    =  -8.2966555672958E-01
(PID.TID 0000.0001) %MON ke_max                       =   1.7154153296158E-03
(PID.TID 0000.0001) %MON ke_mean                      =   2.1307676747343E-06
(PID.TID 0000.0001) %MON ke_vol                       =   4.2724650201667E+12
(PID.TID 0000.0001) // =======================================================
(PID.TID 0000.0001) // End MONITOR dynamic field statistics
(PID.TID 0000.0001) // =======================================================
(PID.TID 0000.0001) // =======================================================
(PID.TID 0000.0001) // Begin OBCS MONITOR field statistics
(PID.TID 0000.0001) // =======================================================
(PID.TID 0000.0001) %MON obc_N_vVel_max               =   1.4973646252207E-05
(PID.TID 0000.0001) %MON obc_N_vVel_min               =   1.4973646252206E-05
(PID.TID 0000.0001) %MON obc_N_vVel_mean              =   1.4973646252207E-05
(PID.TID 0000.0001) %MON obc_N_vVel_sd                =  -1.5044347390808E-23
(PID.TID 0000.0001) %MON obc_N_vVel_Int               =   9.8826065264563E+02
(PID.TID 0000.0001) // =======================================================
(PID.TID 0000.0001) // End OBCS MONITOR field statistics
(PID.TID 0000.0001) // =======================================================
 cg2d: Sum(rhs),rhsMax =   4.50806897569315E+00  2.99967167868283E+02
(PID.TID 0000.0001)      cg2d_init_res =   1.15465592415942E-05
(PID.TID 0000.0001)      cg2d_iters(min,last) =      -1      85
(PID.TID 0000.0001)      cg2d_last_res =   8.68243002374222E-12
(PID.TID 0000.0001) // =======================================================
(PID.TID 0000.0001) // Begin MONITOR dynamic field statistics
(PID.TID 0000.0001) // =======================================================
(PID.TID 0000.0001) %MON time_tsnumber                =                  1485
(PID.TID 0000.0001) %MON time_secondsf                =   1.4850000000000E+05
(PID.TID 0000.0001) %MON dynstat_eta_max              =   5.8026939284691E+00
(PID.TID 0000.0001) %MON dynstat_eta_min              =  -1.4194317694297E+01
(PID.TID 0000.0001) %MON dynstat_eta_mean             =  -2.5042086725806E+00
(PID.TID 0000.0001) %MON dynstat_eta_sd               =   4.9501706811838E+00
(PID.TID 0000.0001) %MON dynstat_eta_del2             =   2.0717007930715E-01
(PID.TID 0000.0001) %MON dynstat_uvel_max             =   1.4121201701032E-02
(PID.TID 0000.0001) %MON dynstat_uvel_min             =  -6.3175647582957E-02
(PID.TID 0000.0001) %MON dynstat_uvel_mean            =  -1.0548791883042E-07
(PID.TID 0000.0001) %MON dynstat_uvel_sd              =   1.8479204050656E-03
(PID.TID 0000.0001) %MON dynstat_uvel_del2            =   2.8495556697209E-06
(PID.TID 0000.0001) %MON dynstat_vvel_max             =   3.9416624564672E-02
(PID.TID 0000.0001) %MON dynstat_vvel_min             =  -2.2090383445056E-02
(PID.TID 0000.0001) %MON dynstat_vvel_mean            =   1.5303436834821E-05
(PID.TID 0000.0001) %MON dynstat_vvel_sd              =   9.6541917470427E-04
(PID.TID 0000.0001) %MON dynstat_vvel_del2            =   2.0021260768848E-06
(PID.TID 0000.0001) %MON dynstat_wvel_max             =   2.1956126963436E-03
(PID.TID 0000.0001) %MON dynstat_wvel_min             =  -2.1427572808066E-03
(PID.TID 0000.0001) %MON dynstat_wvel_mean            =   7.5215053828349E-09
(PID.TID 0000.0001) %MON dynstat_wvel_sd              =   3.6058326362024E-05
(PID.TID 0000.0001) %MON dynstat_wvel_del2            =   1.4231181356755E-07
(PID.TID 0000.0001) %MON dynstat_theta_max            =   1.2000000000000E+00
(PID.TID 0000.0001) %MON dynstat_theta_min            =  -1.0000000000000E+00
(PID.TID 0000.0001) %MON dynstat_theta_mean           =   5.6819521268100E-01
(PID.TID 0000.0001) %MON dynstat_theta_sd             =   8.6809788397164E-01
(PID.TID 0000.0001) %MON dynstat_theta_del2           =   6.3084542745670E-06
(PID.TID 0000.0001) %MON dynstat_salt_max             =   3.4700000000000E+01
(PID.TID 0000.0001) %MON dynstat_salt_min             =   3.4000000000000E+01
(PID.TID 0000.0001) %MON dynstat_salt_mean            =   3.4498892115125E+01
(PID.TID 0000.0001) %MON dynstat_salt_sd              =   2.7618124002356E-01
(PID.TID 0000.0001) %MON dynstat_salt_del2            =   2.5006822039675E-06
(PID.TID 0000.0001) %MON advcfl_uvel_max              =   6.3175647582957E-03
(PID.TID 0000.0001) %MON advcfl_vvel_max              =   3.9416624564672E-03
(PID.TID 0000.0001) %MON advcfl_wvel_max              =   1.0978063481718E-02
(PID.TID 0000.0001) %MON advcfl_W_hf_max              =   1.0978063481718E-02
(PID.TID 0000.0001) %MON pe_b_mean                    =  -8.2966524444160E-01
(PID.TID 0000.0001) %MON ke_max                       =   1.7231281830842E-03
(PID.TID 0000.0001) %MON ke_mean                      =   2.1396711960166E-06
(PID.TID 0000.0001) %MON ke_vol                       =   4.2724650102709E+12
(PID.TID 0000.0001) // =======================================================
(PID.TID 0000.0001) // End MONITOR dynamic field statistics
(PID.TID 0000.0001) // =======================================================
(PID.TID 0000.0001) // =======================================================
(PID.TID 0000.0001) // Begin OBCS MONITOR field statistics
(PID.TID 0000.0001) // =======================================================
(PID.TID 0000.0001) %MON obc_N_vVel_max               =   1.4980136548903E-05
(PID.TID 0000.0001) %MON obc_N_vVel_min               =   1.4980136548903E-05
(PID.TID 0000.0001) %MON obc_N_vVel_mean              =   1.4980136548903E-05
(PID.TID 0000.0001) %MON obc_N_vVel_sd                =   4.7313396968741E-12
(PID.TID 0000.0001) %MON obc_N_vVel_Int               =   9.8868901222758E+02
(PID.TID 0000.0001) // =======================================================
(PID.TID 0000.0001) // End OBCS MONITOR field statistics
(PID.TID 0000.0001) // =======================================================
 cg2d: Sum(rhs),rhsMax =   4.50807072804308E+00  2.99967246262181E+02
(PID.TID 0000.0001)      cg2d_init_res =   1.15610038323442E-05
(PID.TID 0000.0001)      cg2d_iters(min,last) =      -1      85
(PID.TID 0000.0001)      cg2d_last_res =   8.68481132939925E-12
(PID.TID 0000.0001) // =======================================================
(PID.TID 0000.0001) // Begin MONITOR dynamic field statistics
(PID.TID 0000.0001) // =======================================================
(PID.TID 0000.0001) %MON time_tsnumber                =                  1486
(PID.TID 0000.0001) %MON time_secondsf                =   1.4860000000000E+05
(PID.TID 0000.0001) %MON dynstat_eta_max              =   5.8027289869756E+00
(PID.TID 0000.0001) %MON dynstat_eta_min              =  -1.4194347641975E+01
(PID.TID 0000.0001) %MON dynstat_eta_mean             =  -2.5042103004560E+00
(PID.TID 0000.0001) %MON dynstat_eta_sd               =   4.9501718602400E+00
(PID.TID 0000.0001) %MON dynstat_eta_del2             =   2.0717013788708E-01
(PID.TID 0000.0001) %MON dynstat_uvel_max             =   1.4151930001177E-02
(PID.TID 0000.0001) %MON dynstat_uvel_min             =  -6.3295252905165E-02
(PID.TID 0000.0001) %MON dynstat_uvel_mean            =  -1.0540615141078E-07
(PID.TID 0000.0001) %MON dynstat_uvel_sd              =   1.8518625525457E-03
(PID.TID 0000.0001) %MON dynstat_uvel_del2            =   2.8564430186899E-06
(PID.TID 0000.0001) %MON dynstat_vvel_max             =   3.9463683484483E-02
(PID.TID 0000.0001) %MON dynstat_vvel_min             =  -2.2141660138500E-02
(PID.TID 0000.0001) %MON dynstat_vvel_mean            =   1.5309081261716E-05
(PID.TID 0000.0001) %MON dynstat_vvel_sd              =   9.6726930914300E-04
(PID.TID 0000.0001) %MON dynstat_vvel_del2            =   2.0059970373344E-06
(PID.TID 0000.0001) %MON dynstat_wvel_max             =   2.1986766333535E-03
(PID.TID 0000.0001) %MON dynstat_wvel_min             =  -2.1460163678313E-03
(PID.TID 0000.0001) %MON dynstat_wvel_mean            =   7.5203476529337E-09
(PID.TID 0000.0001) %MON dynstat_wvel_sd              =   3.6140973790621E-05
(PID.TID 0000.0001) %MON dynstat_wvel_del2            =   1.4256801715417E-07
(PID.TID 0000.0001) %MON dynstat_theta_max            =   1.2000000000000E+00
(PID.TID 0000.0001) %MON dynstat_theta_min            =  -1.0000000000000E+00
(PID.TID 0000.0001) %MON dynstat_theta_mean           =   5.6819341948522E-01
(PID.TID 0000.0001) %MON dynstat_theta_sd             =   8.6809696158008E-01
(PID.TID 0000.0001) %MON dynstat_theta_del2           =   6.3199915529517E-06
(PID.TID 0000.0001) %MON dynstat_salt_max             =   3.4700000000000E+01
(PID.TID 0000.0001) %MON dynstat_salt_min             =   3.4000000000000E+01
(PID.TID 0000.0001) %MON dynstat_salt_mean            =   3.4498891397249E+01
(PID.TID 0000.0001) %MON dynstat_salt_sd              =   2.7618088865911E-01
(PID.TID 0000.0001) %MON dynstat_salt_del2            =   2.5052712871070E-06
(PID.TID 0000.0001) %MON advcfl_uvel_max              =   6.3295252905165E-03
(PID.TID 0000.0001) %MON advcfl_vvel_max              =   3.9463683484483E-03
(PID.TID 0000.0001) %MON advcfl_wvel_max              =   1.0993383166768E-02
(PID.TID 0000.0001) %MON advcfl_W_hf_max              =   1.0993383166768E-02
(PID.TID 0000.0001) %MON pe_b_mean                    =  -8.2966492452080E-01
(PID.TID 0000.0001) %MON ke_max                       =   1.7308674113136E-03
(PID.TID 0000.0001) %MON ke_mean                      =   2.1486070615239E-06
(PID.TID 0000.0001) %MON ke_vol                       =   4.2724650004849E+12
(PID.TID 0000.0001) // =======================================================
(PID.TID 0000.0001) // End MONITOR dynamic field statistics
(PID.TID 0000.0001) // =======================================================
(PID.TID 0000.0001) // =======================================================
(PID.TID 0000.0001) // Begin OBCS MONITOR field statistics
(PID.TID 0000.0001) // =======================================================
(PID.TID 0000.0001) %MON obc_N_vVel_max               =   1.4985665452655E-05
(PID.TID 0000.0001) %MON obc_N_vVel_min               =   1.4985665452655E-05
(PID.TID 0000.0001) %MON obc_N_vVel_mean              =   1.4985665452655E-05
(PID.TID 0000.0001) %MON obc_N_vVel_sd                =  -8.3752037020994E-24
(PID.TID 0000.0001) %MON obc_N_vVel_Int               =   9.8905391987525E+02
(PID.TID 0000.0001) // =======================================================
(PID.TID 0000.0001) // End OBCS MONITOR field statistics
(PID.TID 0000.0001) // =======================================================
 cg2d: Sum(rhs),rhsMax =   4.50807244270129E+00  2.99967324671691E+02
(PID.TID 0000.0001)      cg2d_init_res =   1.15750517424907E-05
(PID.TID 0000.0001)      cg2d_iters(min,last) =      -1      85
(PID.TID 0000.0001)      cg2d_last_res =   8.68671328446235E-12
(PID.TID 0000.0001) // =======================================================
(PID.TID 0000.0001) // Begin MONITOR dynamic field statistics
(PID.TID 0000.0001) // =======================================================
(PID.TID 0000.0001) %MON time_tsnumber                =                  1487
(PID.TID 0000.0001) %MON time_secondsf                =   1.4870000000000E+05
(PID.TID 0000.0001) %MON dynstat_eta_max              =   5.8027641475015E+00
(PID.TID 0000.0001) %MON dynstat_eta_min              =  -1.4194377594282E+01
(PID.TID 0000.0001) %MON dynstat_eta_mean             =  -2.5042119075246E+00
(PID.TID 0000.0001) %MON dynstat_eta_sd               =   4.9501730323776E+00
(PID.TID 0000.0001) %MON dynstat_eta_del2             =   2.0717019655045E-01
(PID.TID 0000.0001) %MON dynstat_uvel_max             =   1.4182704803821E-02
(PID.TID 0000.0001) %MON dynstat_uvel_min             =  -6.3414896680367E-02
(PID.TID 0000.0001) %MON dynstat_uvel_mean            =  -1.0531946795416E-07
(PID.TID 0000.0001) %MON dynstat_uvel_sd              =   1.8558110838760E-03
(PID.TID 0000.0001) %MON dynstat_uvel_del2            =   2.8633462210897E-06
(PID.TID 0000.0001) %MON dynstat_vvel_max             =   3.9510700970154E-02
(PID.TID 0000.0001) %MON dynstat_vvel_min             =  -2.2193019317937E-02
(PID.TID 0000.0001) %MON dynstat_vvel_mean            =   1.5313440224354E-05
(PID.TID 0000.0001) %MON dynstat_vvel_sd              =   9.6912150270995E-04
(PID.TID 0000.0001) %MON dynstat_vvel_del2            =   2.0098728545001E-06
(PID.TID 0000.0001) %MON dynstat_wvel_max             =   2.2017383321679E-03
(PID.TID 0000.0001) %MON dynstat_wvel_min             =  -2.1492749911399E-03
(PID.TID 0000.0001) %MON dynstat_wvel_mean            =   7.5168883261357E-09
(PID.TID 0000.0001) %MON dynstat_wvel_sd              =   3.6220987726514E-05
(PID.TID 0000.0001) %MON dynstat_wvel_del2            =   1.4282304222734E-07
(PID.TID 0000.0001) %MON dynstat_theta_max            =   1.2000000000000E+00
(PID.TID 0000.0001) %MON dynstat_theta_min            =  -1.0000000000000E+00
(PID.TID 0000.0001) %MON dynstat_theta_mean           =   5.6819162323063E-01
(PID.TID 0000.0001) %MON dynstat_theta_sd             =   8.6809603783957E-01
(PID.TID 0000.0001) %MON dynstat_theta_del2           =   6.3315481083264E-06
(PID.TID 0000.0001) %MON dynstat_salt_max             =   3.4700000000000E+01
(PID.TID 0000.0001) %MON dynstat_salt_min             =   3.4000000000000E+01
(PID.TID 0000.0001) %MON dynstat_salt_mean            =   3.4498890678146E+01
(PID.TID 0000.0001) %MON dynstat_salt_sd              =   2.7618053680489E-01
(PID.TID 0000.0001) %MON dynstat_salt_del2            =   2.5098675776513E-06
(PID.TID 0000.0001) %MON advcfl_uvel_max              =   6.3414896680367E-03
(PID.TID 0000.0001) %MON advcfl_vvel_max              =   3.9510700970154E-03
(PID.TID 0000.0001) %MON advcfl_wvel_max              =   1.1008691660839E-02
(PID.TID 0000.0001) %MON advcfl_W_hf_max              =   1.1008691660839E-02
(PID.TID 0000.0001) %MON pe_b_mean                    =  -8.2966459662580E-01
(PID.TID 0000.0001) %MON ke_max                       =   1.7386330308373E-03
(PID.TID 0000.0001) %MON ke_mean                      =   2.1575751707081E-06
(PID.TID 0000.0001) %MON ke_vol                       =   4.2724649908153E+12
(PID.TID 0000.0001) // =======================================================
(PID.TID 0000.0001) // End MONITOR dynamic field statistics
(PID.TID 0000.0001) // =======================================================
(PID.TID 0000.0001) // =======================================================
(PID.TID 0000.0001) // Begin OBCS MONITOR field statistics
(PID.TID 0000.0001) // =======================================================
(PID.TID 0000.0001) %MON obc_N_vVel_max               =   1.4990135032888E-05
(PID.TID 0000.0001) %MON obc_N_vVel_min               =   1.4990135032888E-05
(PID.TID 0000.0001) %MON obc_N_vVel_mean              =   1.4990135032888E-05
(PID.TID 0000.0001) %MON obc_N_vVel_sd                =  -6.8500894477048E-24
(PID.TID 0000.0001) %MON obc_N_vVel_Int               =   9.8934891217062E+02
(PID.TID 0000.0001) // =======================================================
(PID.TID 0000.0001) // End OBCS MONITOR field statistics
(PID.TID 0000.0001) // =======================================================
 cg2d: Sum(rhs),rhsMax =   4.50807411759269E+00  2.99967403080245E+02
(PID.TID 0000.0001)      cg2d_init_res =   1.15887441204145E-05
(PID.TID 0000.0001)      cg2d_iters(min,last) =      -1      85
(PID.TID 0000.0001)      cg2d_last_res =   8.68823763794386E-12
(PID.TID 0000.0001) // =======================================================
(PID.TID 0000.0001) // Begin MONITOR dynamic field statistics
(PID.TID 0000.0001) // =======================================================
(PID.TID 0000.0001) %MON time_tsnumber                =                  1488
(PID.TID 0000.0001) %MON time_secondsf                =   1.4880000000000E+05
(PID.TID 0000.0001) %MON dynstat_eta_max              =   5.8027994128664E+00
(PID.TID 0000.0001) %MON dynstat_eta_min              =  -1.4194407549796E+01
(PID.TID 0000.0001) %MON dynstat_eta_mean             =  -2.5042134924955E+00
(PID.TID 0000.0001) %MON dynstat_eta_sd               =   4.9501741971271E+00
(PID.TID 0000.0001) %MON dynstat_eta_del2             =   2.0717025529709E-01
(PID.TID 0000.0001) %MON dynstat_uvel_max             =   1.4213526146692E-02
(PID.TID 0000.0001) %MON dynstat_uvel_min             =  -6.3534577740604E-02
(PID.TID 0000.0001) %MON dynstat_uvel_mean            =  -1.0522925803421E-07
(PID.TID 0000.0001) %MON dynstat_uvel_sd              =   1.8597659975055E-03
(PID.TID 0000.0001) %MON dynstat_uvel_del2            =   2.8702653007191E-06
(PID.TID 0000.0001) %MON dynstat_vvel_max             =   3.9557676804057E-02
(PID.TID 0000.0001) %MON dynstat_vvel_min             =  -2.2244460829778E-02
(PID.TID 0000.0001) %MON dynstat_vvel_mean            =   1.5316447041164E-05
(PID.TID 0000.0001) %MON dynstat_vvel_sd              =   9.7097559707378E-04
(PID.TID 0000.0001) %MON dynstat_vvel_del2            =   2.0137533327309E-06
(PID.TID 0000.0001) %MON dynstat_wvel_max             =   2.2047977738108E-03
(PID.TID 0000.0001) %MON dynstat_wvel_min             =  -2.1525331137063E-03
(PID.TID 0000.0001) %MON dynstat_wvel_mean            =   7.5112563906213E-09
(PID.TID 0000.0001) %MON dynstat_wvel_sd              =   3.6297924088382E-05
(PID.TID 0000.0001) %MON dynstat_wvel_del2            =   1.4307630671885E-07
(PID.TID 0000.0001) %MON dynstat_theta_max            =   1.2000000000000E+00
(PID.TID 0000.0001) %MON dynstat_theta_min            =  -1.0000000000000E+00
(PID.TID 0000.0001) %MON dynstat_theta_mean           =   5.6818982391387E-01
(PID.TID 0000.0001) %MON dynstat_theta_sd             =   8.6809511275079E-01
(PID.TID 0000.0001) %MON dynstat_theta_del2           =   6.3431245780578E-06
(PID.TID 0000.0001) %MON dynstat_salt_max             =   3.4700000000000E+01
(PID.TID 0000.0001) %MON dynstat_salt_min             =   3.4000000000000E+01
(PID.TID 0000.0001) %MON dynstat_salt_mean            =   3.4498889957815E+01
(PID.TID 0000.0001) %MON dynstat_salt_sd              =   2.7618018446125E-01
(PID.TID 0000.0001) %MON dynstat_salt_del2            =   2.5144712754789E-06
(PID.TID 0000.0001) %MON advcfl_uvel_max              =   6.3534577740604E-03
(PID.TID 0000.0001) %MON advcfl_vvel_max              =   3.9557676804057E-03
(PID.TID 0000.0001) %MON advcfl_wvel_max              =   1.1023988869054E-02
(PID.TID 0000.0001) %MON advcfl_W_hf_max              =   1.1023988869054E-02
(PID.TID 0000.0001) %MON pe_b_mean                    =  -8.2966426040044E-01
(PID.TID 0000.0001) %MON ke_max                       =   1.7464250578623E-03
(PID.TID 0000.0001) %MON ke_mean                      =   2.1665754515526E-06
(PID.TID 0000.0001) %MON ke_vol                       =   4.2724649812693E+12
(PID.TID 0000.0001) // =======================================================
(PID.TID 0000.0001) // End MONITOR dynamic field statistics
(PID.TID 0000.0001) // =======================================================
(PID.TID 0000.0001) // =======================================================
(PID.TID 0000.0001) // Begin OBCS MONITOR field statistics
(PID.TID 0000.0001) // =======================================================
(PID.TID 0000.0001) %MON obc_N_vVel_max               =   1.4993470903539E-05
(PID.TID 0000.0001) %MON obc_N_vVel_min               =   1.4993470903538E-05
(PID.TID 0000.0001) %MON obc_N_vVel_mean              =   1.4993470903539E-05
(PID.TID 0000.0001) %MON obc_N_vVel_sd                =  -1.4087919807544E-23
(PID.TID 0000.0001) %MON obc_N_vVel_Int               =   9.8956907963355E+02
(PID.TID 0000.0001) // =======================================================
(PID.TID 0000.0001) // End OBCS MONITOR field statistics
(PID.TID 0000.0001) // =======================================================
 cg2d: Sum(rhs),rhsMax =   4.50807575052467E+00  2.99967481472536E+02
(PID.TID 0000.0001)      cg2d_init_res =   1.16021289794965E-05
(PID.TID 0000.0001)      cg2d_iters(min,last) =      -1      85
(PID.TID 0000.0001)      cg2d_last_res =   8.68949834314127E-12
(PID.TID 0000.0001) // =======================================================
(PID.TID 0000.0001) // Begin MONITOR dynamic field statistics
(PID.TID 0000.0001) // =======================================================
(PID.TID 0000.0001) %MON time_tsnumber                =                  1489
(PID.TID 0000.0001) %MON time_secondsf                =   1.4890000000000E+05
(PID.TID 0000.0001) %MON dynstat_eta_max              =   5.8028347859468E+00
(PID.TID 0000.0001) %MON dynstat_eta_min              =  -1.4194437507077E+01
(PID.TID 0000.0001) %MON dynstat_eta_mean             =  -2.5042150540228E+00
(PID.TID 0000.0001) %MON dynstat_eta_sd               =   4.9501753540250E+00
(PID.TID 0000.0001) %MON dynstat_eta_del2             =   2.0717031412685E-01
(PID.TID 0000.0001) %MON dynstat_uvel_max             =   1.4244394065479E-02
(PID.TID 0000.0001) %MON dynstat_uvel_min             =  -6.3654294924525E-02
(PID.TID 0000.0001) %MON dynstat_uvel_mean            =  -1.0513698107854E-07
(PID.TID 0000.0001) %MON dynstat_uvel_sd              =   1.8637272919019E-03
(PID.TID 0000.0001) %MON dynstat_uvel_del2            =   2.8772002813744E-06
(PID.TID 0000.0001) %MON dynstat_vvel_max             =   3.9604610775148E-02
(PID.TID 0000.0001) %MON dynstat_vvel_min             =  -2.2295984511119E-02
(PID.TID 0000.0001) %MON dynstat_vvel_mean            =   1.5318064600038E-05
(PID.TID 0000.0001) %MON dynstat_vvel_sd              =   9.7283146898766E-04
(PID.TID 0000.0001) %MON dynstat_vvel_del2            =   2.0176383007038E-06
(PID.TID 0000.0001) %MON dynstat_wvel_max             =   2.2078549393229E-03
(PID.TID 0000.0001) %MON dynstat_wvel_min             =  -2.1557906979582E-03
(PID.TID 0000.0001) %MON dynstat_wvel_mean            =   7.5036258967787E-09
(PID.TID 0000.0001) %MON dynstat_wvel_sd              =   3.6371420659465E-05
(PID.TID 0000.0001) %MON dynstat_wvel_del2            =   1.4332717194538E-07
(PID.TID 0000.0001) %MON dynstat_theta_max            =   1.2000000000000E+00
(PID.TID 0000.0001) %MON dynstat_theta_min            =  -1.0000000000000E+00
(PID.TID 0000.0001) %MON dynstat_theta_mean           =   5.6818802153149E-01
(PID.TID 0000.0001) %MON dynstat_theta_sd             =   8.6809418631521E-01
(PID.TID 0000.0001) %MON dynstat_theta_del2           =   6.3547215217618E-06
(PID.TID 0000.0001) %MON dynstat_salt_max             =   3.4700000000000E+01
(PID.TID 0000.0001) %MON dynstat_salt_min             =   3.4000000000000E+01
(PID.TID 0000.0001) %MON dynstat_salt_mean            =   3.4498889236254E+01
(PID.TID 0000.0001) %MON dynstat_salt_sd              =   2.7617983162883E-01
(PID.TID 0000.0001) %MON dynstat_salt_del2            =   2.5190825304257E-06
(PID.TID 0000.0001) %MON advcfl_uvel_max              =   6.3654294924525E-03
(PID.TID 0000.0001) %MON advcfl_vvel_max              =   3.9604610775148E-03
(PID.TID 0000.0001) %MON advcfl_wvel_max              =   1.1039274696615E-02
(PID.TID 0000.0001) %MON advcfl_W_hf_max              =   1.1039274696615E-02
(PID.TID 0000.0001) %MON pe_b_mean                    =  -8.2966391548130E-01
(PID.TID 0000.0001) %MON ke_max                       =   1.7542435082652E-03
(PID.TID 0000.0001) %MON ke_mean                      =   2.1756078655930E-06
(PID.TID 0000.0001) %MON ke_vol                       =   4.2724649718546E+12
(PID.TID 0000.0001) // =======================================================
(PID.TID 0000.0001) // End MONITOR dynamic field statistics
(PID.TID 0000.0001) // =======================================================
(PID.TID 0000.0001) // =======================================================
(PID.TID 0000.0001) // Begin OBCS MONITOR field statistics
(PID.TID 0000.0001) // =======================================================
(PID.TID 0000.0001) %MON obc_N_vVel_max               =   1.4995623680729E-05
(PID.TID 0000.0001) %MON obc_N_vVel_min               =   1.4995623680729E-05
(PID.TID 0000.0001) %MON obc_N_vVel_mean              =   1.4995623680729E-05
(PID.TID 0000.0001) %MON obc_N_vVel_sd                =  -3.3345718443544E-24
(PID.TID 0000.0001) %MON obc_N_vVel_Int               =   9.8971116292813E+02
(PID.TID 0000.0001) // =======================================================
(PID.TID 0000.0001) // End OBCS MONITOR field statistics
(PID.TID 0000.0001) // =======================================================
 cg2d: Sum(rhs),rhsMax =   4.50807733922780E+00  2.99967559834810E+02
(PID.TID 0000.0001)      cg2d_init_res =   1.16152574077555E-05
(PID.TID 0000.0001)      cg2d_iters(min,last) =      -1      85
(PID.TID 0000.0001)      cg2d_last_res =   8.69062304188512E-12
(PID.TID 0000.0001) // =======================================================
(PID.TID 0000.0001) // Begin MONITOR dynamic field statistics
(PID.TID 0000.0001) // =======================================================
(PID.TID 0000.0001) %MON time_tsnumber                =                  1490
(PID.TID 0000.0001) %MON time_secondsf                =   1.4900000000000E+05
(PID.TID 0000.0001) %MON dynstat_eta_max              =   5.8028702696053E+00
(PID.TID 0000.0001) %MON dynstat_eta_min              =  -1.4194467464709E+01
(PID.TID 0000.0001) %MON dynstat_eta_mean             =  -2.5042165907310E+00
(PID.TID 0000.0001) %MON dynstat_eta_sd               =   4.9501765026215E+00
(PID.TID 0000.0001) %MON dynstat_eta_del2             =   2.0717037303991E-01
(PID.TID 0000.0001) %MON dynstat_uvel_max             =   1.4275308584365E-02
(PID.TID 0000.0001) %MON dynstat_uvel_min             =  -6.3774047077507E-02
(PID.TID 0000.0001) %MON dynstat_uvel_mean            =  -1.0504413146156E-07
(PID.TID 0000.0001) %MON dynstat_uvel_sd              =   1.8676949655235E-03
(PID.TID 0000.0001) %MON dynstat_uvel_del2            =   2.8841511870725E-06
(PID.TID 0000.0001) %MON dynstat_vvel_max             =   3.9651502679019E-02
(PID.TID 0000.0001) %MON dynstat_vvel_min             =  -2.2347590189689E-02
(PID.TID 0000.0001) %MON dynstat_vvel_mean            =   1.5318285906932E-05
(PID.TID 0000.0001) %MON dynstat_vvel_sd              =   9.7468903396355E-04
(PID.TID 0000.0001) %MON dynstat_vvel_del2            =   2.0215276137232E-06
(PID.TID 0000.0001) %MON dynstat_wvel_max             =   2.2109098097517E-03
(PID.TID 0000.0001) %MON dynstat_wvel_min             =  -2.1590477113055E-03
(PID.TID 0000.0001) %MON dynstat_wvel_mean            =   7.4942127313812E-09
(PID.TID 0000.0001) %MON dynstat_wvel_sd              =   3.6441205228981E-05
(PID.TID 0000.0001) %MON dynstat_wvel_del2            =   1.4357493577729E-07
(PID.TID 0000.0001) %MON dynstat_theta_max            =   1.2000000000000E+00
(PID.TID 0000.0001) %MON dynstat_theta_min            =  -1.0000000000000E+00
(PID.TID 0000.0001) %MON dynstat_theta_mean           =   5.6818621607949E-01
(PID.TID 0000.0001) %MON dynstat_theta_sd             =   8.6809325853368E-01
(PID.TID 0000.0001) %MON dynstat_theta_del2           =   6.3663394155239E-06
(PID.TID 0000.0001) %MON dynstat_salt_max             =   3.4700000000000E+01
(PID.TID 0000.0001) %MON dynstat_salt_min             =   3.4000000000000E+01
(PID.TID 0000.0001) %MON dynstat_salt_mean            =   3.4498888513463E+01
(PID.TID 0000.0001) %MON dynstat_salt_sd              =   2.7617947830783E-01
(PID.TID 0000.0001) %MON dynstat_salt_del2            =   2.5237014756274E-06
(PID.TID 0000.0001) %MON advcfl_uvel_max              =   6.3774047077507E-03
(PID.TID 0000.0001) %MON advcfl_vvel_max              =   3.9651502679019E-03
(PID.TID 0000.0001) %MON advcfl_wvel_max              =   1.1054549048759E-02
(PID.TID 0000.0001) %MON advcfl_W_hf_max              =   1.1054549048759E-02
(PID.TID 0000.0001) %MON pe_b_mean                    =  -8.2966356150372E-01
(PID.TID 0000.0001) %MON ke_max                       =   1.7620883975829E-03
(PID.TID 0000.0001) %MON ke_mean                      =   2.1846724117759E-06
(PID.TID 0000.0001) %MON ke_vol                       =   4.2724649625791E+12
(PID.TID 0000.0001) // =======================================================
(PID.TID 0000.0001) // End MONITOR dynamic field statistics
(PID.TID 0000.0001) // =======================================================
(PID.TID 0000.0001) // =======================================================
(PID.TID 0000.0001) // Begin OBCS MONITOR field statistics
(PID.TID 0000.0001) // =======================================================
(PID.TID 0000.0001) %MON obc_N_vVel_max               =   1.4996569753779E-05
(PID.TID 0000.0001) %MON obc_N_vVel_min               =   1.4996569753778E-05
(PID.TID 0000.0001) %MON obc_N_vVel_mean              =   1.4996569753779E-05
(PID.TID 0000.0001) %MON obc_N_vVel_sd                =  -9.9261673506363E-24
(PID.TID 0000.0001) %MON obc_N_vVel_Int               =   9.8977360374940E+02
(PID.TID 0000.0001) // =======================================================
(PID.TID 0000.0001) // End OBCS MONITOR field statistics
(PID.TID 0000.0001) // =======================================================
 cg2d: Sum(rhs),rhsMax =   4.50807888140253E+00  2.99967638155117E+02
(PID.TID 0000.0001)      cg2d_init_res =   1.16281883752486E-05
(PID.TID 0000.0001)      cg2d_iters(min,last) =      -1      85
(PID.TID 0000.0001)      cg2d_last_res =   8.69174285800990E-12
(PID.TID 0000.0001) // =======================================================
(PID.TID 0000.0001) // Begin MONITOR dynamic field statistics
(PID.TID 0000.0001) // =======================================================
(PID.TID 0000.0001) %MON time_tsnumber                =                  1491
(PID.TID 0000.0001) %MON time_secondsf                =   1.4910000000000E+05
(PID.TID 0000.0001) %MON dynstat_eta_max              =   5.8029058666469E+00
(PID.TID 0000.0001) %MON dynstat_eta_min              =  -1.4194497421305E+01
(PID.TID 0000.0001) %MON dynstat_eta_mean             =  -2.5042181012431E+00
(PID.TID 0000.0001) %MON dynstat_eta_sd               =   4.9501776424901E+00
(PID.TID 0000.0001) %MON dynstat_eta_del2             =   2.0717043203693E-01
(PID.TID 0000.0001) %MON dynstat_uvel_max             =   1.4306269729419E-02
(PID.TID 0000.0001) %MON dynstat_uvel_min             =  -6.3893833051520E-02
(PID.TID 0000.0001) %MON dynstat_uvel_mean            =  -1.0495220323829E-07
(PID.TID 0000.0001) %MON dynstat_uvel_sd              =   1.8716690168055E-03
(PID.TID 0000.0001) %MON dynstat_uvel_del2            =   2.8911180420397E-06
(PID.TID 0000.0001) %MON dynstat_vvel_max             =   3.9698352317931E-02
(PID.TID 0000.0001) %MON dynstat_vvel_min             =  -2.2399277684050E-02
(PID.TID 0000.0001) %MON dynstat_vvel_mean            =   1.5317133974266E-05
(PID.TID 0000.0001) %MON dynstat_vvel_sd              =   9.7654824886038E-04
(PID.TID 0000.0001) %MON dynstat_vvel_del2            =   2.0254211574619E-06
(PID.TID 0000.0001) %MON dynstat_wvel_max             =   2.2139623661838E-03
(PID.TID 0000.0001) %MON dynstat_wvel_min             =  -2.1623041209049E-03
(PID.TID 0000.0001) %MON dynstat_wvel_mean            =   7.4832699191225E-09
(PID.TID 0000.0001) %MON dynstat_wvel_sd              =   3.6507102638354E-05
(PID.TID 0000.0001) %MON dynstat_wvel_del2            =   1.4381884025457E-07
(PID.TID 0000.0001) %MON dynstat_theta_max            =   1.2000000000000E+00
(PID.TID 0000.0001) %MON dynstat_theta_min            =  -1.0000000000000E+00
(PID.TID 0000.0001) %MON dynstat_theta_mean           =   5.6818440755326E-01
(PID.TID 0000.0001) %MON dynstat_theta_sd             =   8.6809232940536E-01
(PID.TID 0000.0001) %MON dynstat_theta_del2           =   6.3779786382559E-06
(PID.TID 0000.0001) %MON dynstat_salt_max             =   3.4700000000000E+01
(PID.TID 0000.0001) %MON dynstat_salt_min             =   3.4000000000000E+01
(PID.TID 0000.0001) %MON dynstat_salt_mean            =   3.4498887789439E+01
(PID.TID 0000.0001) %MON dynstat_salt_sd              =   2.7617912449820E-01
(PID.TID 0000.0001) %MON dynstat_salt_del2            =   2.5283282092051E-06
(PID.TID 0000.0001) %MON advcfl_uvel_max              =   6.3893833051520E-03
(PID.TID 0000.0001) %MON advcfl_vvel_max              =   3.9698352317931E-03
(PID.TID 0000.0001) %MON advcfl_wvel_max              =   1.1069811830919E-02
(PID.TID 0000.0001) %MON advcfl_W_hf_max              =   1.1069811830919E-02
(PID.TID 0000.0001) %MON pe_b_mean                    =  -8.2966319810896E-01
(PID.TID 0000.0001) %MON ke_max                       =   1.7699597410105E-03
(PID.TID 0000.0001) %MON ke_mean                      =   2.1937691293176E-06
(PID.TID 0000.0001) %MON ke_vol                       =   4.2724649534511E+12
(PID.TID 0000.0001) // =======================================================
(PID.TID 0000.0001) // End MONITOR dynamic field statistics
(PID.TID 0000.0001) // =======================================================
(PID.TID 0000.0001) // =======================================================
(PID.TID 0000.0001) // Begin OBCS MONITOR field statistics
(PID.TID 0000.0001) // =======================================================
(PID.TID 0000.0001) %MON obc_N_vVel_max               =   1.4996311566489E-05
(PID.TID 0000.0001) %MON obc_N_vVel_min               =   1.4996311566489E-05
(PID.TID 0000.0001) %MON obc_N_vVel_mean              =   1.4996311566489E-05
(PID.TID 0000.0001) %MON obc_N_vVel_sd                =  -8.5044506728108E-24
(PID.TID 0000.0001) %MON obc_N_vVel_Int               =   9.8975656338827E+02
(PID.TID 0000.0001) // =======================================================
(PID.TID 0000.0001) // End OBCS MONITOR field statistics
(PID.TID 0000.0001) // =======================================================
 cg2d: Sum(rhs),rhsMax =   4.50808037479028E+00  2.99967716423504E+02
(PID.TID 0000.0001)      cg2d_init_res =   1.16409784798159E-05
(PID.TID 0000.0001)      cg2d_iters(min,last) =      -1      85
(PID.TID 0000.0001)      cg2d_last_res =   8.69295457525839E-12
(PID.TID 0000.0001) // =======================================================
(PID.TID 0000.0001) // Begin MONITOR dynamic field statistics
(PID.TID 0000.0001) // =======================================================
(PID.TID 0000.0001) %MON time_tsnumber                =                  1492
(PID.TID 0000.0001) %MON time_secondsf                =   1.4920000000000E+05
(PID.TID 0000.0001) %MON dynstat_eta_max              =   5.8029415797517E+00
(PID.TID 0000.0001) %MON dynstat_eta_min              =  -1.4194527375566E+01
(PID.TID 0000.0001) %MON dynstat_eta_mean             =  -2.5042195842212E+00
(PID.TID 0000.0001) %MON dynstat_eta_sd               =   4.9501787732404E+00
(PID.TID 0000.0001) %MON dynstat_eta_del2             =   2.0717049111783E-01
(PID.TID 0000.0001) %MON dynstat_uvel_max             =   1.4337277522889E-02
(PID.TID 0000.0001) %MON dynstat_uvel_min             =  -6.4013651704919E-02
(PID.TID 0000.0001) %MON dynstat_uvel_mean            =  -1.0486263995153E-07
(PID.TID 0000.0001) %MON dynstat_uvel_sd              =   1.8756494441424E-03
(PID.TID 0000.0001) %MON dynstat_uvel_del2            =   2.8981008707944E-06
(PID.TID 0000.0001) %MON dynstat_vvel_max             =   3.9745159500435E-02
(PID.TID 0000.0001) %MON dynstat_vvel_min             =  -2.2451046803081E-02
(PID.TID 0000.0001) %MON dynstat_vvel_mean            =   1.5314661072607E-05
(PID.TID 0000.0001) %MON dynstat_vvel_sd              =   9.7840911340592E-04
(PID.TID 0000.0001) %MON dynstat_vvel_del2            =   2.0293188534592E-06
(PID.TID 0000.0001) %MON dynstat_wvel_max             =   2.2170125897259E-03
(PID.TID 0000.0001) %MON dynstat_wvel_min             =  -2.1655598931904E-03
(PID.TID 0000.0001) %MON dynstat_wvel_mean            =   7.4710810016722E-09
(PID.TID 0000.0001) %MON dynstat_wvel_sd              =   3.6569040640349E-05
(PID.TID 0000.0001) %MON dynstat_wvel_del2            =   1.4405809484678E-07
(PID.TID 0000.0001) %MON dynstat_theta_max            =   1.2000000000000E+00
(PID.TID 0000.0001) %MON dynstat_theta_min            =  -1.0000000000000E+00
(PID.TID 0000.0001) %MON dynstat_theta_mean           =   5.6818259594905E-01
(PID.TID 0000.0001) %MON dynstat_theta_sd             =   8.6809139893092E-01
(PID.TID 0000.0001) %MON dynstat_theta_del2           =   6.3896394352893E-06
(PID.TID 0000.0001) %MON dynstat_salt_max             =   3.4700000000000E+01
(PID.TID 0000.0001) %MON dynstat_salt_min             =   3.4000000000000E+01
(PID.TID 0000.0001) %MON dynstat_salt_mean            =   3.4498887064180E+01
(PID.TID 0000.0001) %MON dynstat_salt_sd              =   2.7617877020018E-01
(PID.TID 0000.0001) %MON dynstat_salt_del2            =   2.5329627964044E-06
(PID.TID 0000.0001) %MON advcfl_uvel_max              =   6.4013651704919E-03
(PID.TID 0000.0001) %MON advcfl_vvel_max              =   3.9745159500435E-03
(PID.TID 0000.0001) %MON advcfl_wvel_max              =   1.1085062948629E-02
(PID.TID 0000.0001) %MON advcfl_W_hf_max              =   1.1085062948629E-02
(PID.TID 0000.0001) %MON pe_b_mean                    =  -8.2966282495717E-01
(PID.TID 0000.0001) %MON ke_max                       =   1.7778575533771E-03
(PID.TID 0000.0001) %MON ke_mean                      =   2.2028980995325E-06
(PID.TID 0000.0001) %MON ke_vol                       =   4.2724649444786E+12
(PID.TID 0000.0001) // =======================================================
(PID.TID 0000.0001) // End MONITOR dynamic field statistics
(PID.TID 0000.0001) // =======================================================
(PID.TID 0000.0001) // =======================================================
(PID.TID 0000.0001) // Begin OBCS MONITOR field statistics
(PID.TID 0000.0001) // =======================================================
(PID.TID 0000.0001) %MON obc_N_vVel_max               =   1.4994877398354E-05
(PID.TID 0000.0001) %MON obc_N_vVel_min               =   1.4994877398354E-05
(PID.TID 0000.0001) %MON obc_N_vVel_mean              =   1.4994877398354E-05
(PID.TID 0000.0001) %MON obc_N_vVel_sd                =   2.5370256485555E-12
(PID.TID 0000.0001) %MON obc_N_vVel_Int               =   9.8966190829137E+02
(PID.TID 0000.0001) // =======================================================
(PID.TID 0000.0001) // End OBCS MONITOR field statistics
(PID.TID 0000.0001) // =======================================================
 cg2d: Sum(rhs),rhsMax =   4.50808181720636E+00  2.99967794632188E+02
(PID.TID 0000.0001)      cg2d_init_res =   1.16536919430645E-05
(PID.TID 0000.0001)      cg2d_iters(min,last) =      -1      85
(PID.TID 0000.0001)      cg2d_last_res =   8.69437370443543E-12
(PID.TID 0000.0001) // =======================================================
(PID.TID 0000.0001) // Begin MONITOR dynamic field statistics
(PID.TID 0000.0001) // =======================================================
(PID.TID 0000.0001) %MON time_tsnumber                =                  1493
(PID.TID 0000.0001) %MON time_secondsf                =   1.4930000000000E+05
(PID.TID 0000.0001) %MON dynstat_eta_max              =   5.8029774114319E+00
(PID.TID 0000.0001) %MON dynstat_eta_min              =  -1.4194557326283E+01
(PID.TID 0000.0001) %MON dynstat_eta_mean             =  -2.5042210383868E+00
(PID.TID 0000.0001) %MON dynstat_eta_sd               =   4.9501798945231E+00
(PID.TID 0000.0001) %MON dynstat_eta_del2             =   2.0717055028260E-01
(PID.TID 0000.0001) %MON dynstat_uvel_max             =   1.4368331990394E-02
(PID.TID 0000.0001) %MON dynstat_uvel_min             =  -6.4133501902864E-02
(PID.TID 0000.0001) %MON dynstat_uvel_mean            =  -1.0477682762930E-07
(PID.TID 0000.0001) %MON dynstat_uvel_sd              =   1.8796362458711E-03
(PID.TID 0000.0001) %MON dynstat_uvel_del2            =   2.9050996980109E-06
(PID.TID 0000.0001) %MON dynstat_vvel_max             =   3.9791924041146E-02
(PID.TID 0000.0001) %MON dynstat_vvel_min             =  -2.2502897348371E-02
(PID.TID 0000.0001) %MON dynstat_vvel_mean            =   1.5310947335807E-05
(PID.TID 0000.0001) %MON dynstat_vvel_sd              =   9.8027167059033E-04
(PID.TID 0000.0001) %MON dynstat_vvel_del2            =   2.0332206667745E-06
(PID.TID 0000.0001) %MON dynstat_wvel_max             =   2.2200604615335E-03
(PID.TID 0000.0001) %MON dynstat_wvel_min             =  -2.1688149940930E-03
(PID.TID 0000.0001) %MON dynstat_wvel_mean            =   7.4579533644627E-09
(PID.TID 0000.0001) %MON dynstat_wvel_sd              =   3.6627054363440E-05
(PID.TID 0000.0001) %MON dynstat_wvel_del2            =   1.4429191464529E-07
(PID.TID 0000.0001) %MON dynstat_theta_max            =   1.2000000000000E+00
(PID.TID 0000.0001) %MON dynstat_theta_min            =  -1.0000000000000E+00
(PID.TID 0000.0001) %MON dynstat_theta_mean           =   5.6818078126301E-01
(PID.TID 0000.0001) %MON dynstat_theta_sd             =   8.6809046711175E-01
(PID.TID 0000.0001) %MON dynstat_theta_del2           =   6.4013219221454E-06
(PID.TID 0000.0001) %MON dynstat_salt_max             =   3.4700000000000E+01
(PID.TID 0000.0001) %MON dynstat_salt_min             =   3.4000000000000E+01
(PID.TID 0000.0001) %MON dynstat_salt_mean            =   3.4498886337686E+01
(PID.TID 0000.0001) %MON dynstat_salt_sd              =   2.7617841541440E-01
(PID.TID 0000.0001) %MON dynstat_salt_del2            =   2.5376052634871E-06
(PID.TID 0000.0001) %MON advcfl_uvel_max              =   6.4133501902864E-03
(PID.TID 0000.0001) %MON advcfl_vvel_max              =   3.9791924041146E-03
(PID.TID 0000.0001) %MON advcfl_wvel_max              =   1.1100302307667E-02
(PID.TID 0000.0001) %MON advcfl_W_hf_max              =   1.1100302307667E-02
(PID.TID 0000.0001) %MON pe_b_mean                    =  -8.2966244173069E-01
(PID.TID 0000.0001) %MON ke_max                       =   1.7857818491710E-03
(PID.TID 0000.0001) %MON ke_mean                      =   2.2120594465635E-06
(PID.TID 0000.0001) %MON ke_vol                       =   4.2724649356697E+12
(PID.TID 0000.0001) // =======================================================
(PID.TID 0000.0001) // End MONITOR dynamic field statistics
(PID.TID 0000.0001) // =======================================================
(PID.TID 0000.0001) // =======================================================
(PID.TID 0000.0001) // Begin OBCS MONITOR field statistics
(PID.TID 0000.0001) // =======================================================
(PID.TID 0000.0001) %MON obc_N_vVel_max               =   1.4992320490130E-05
(PID.TID 0000.0001) %MON obc_N_vVel_min               =   1.4992320490129E-05
(PID.TID 0000.0001) %MON obc_N_vVel_mean              =   1.4992320490129E-05
(PID.TID 0000.0001) %MON obc_N_vVel_sd                =   3.1669488355838E-12
(PID.TID 0000.0001) %MON obc_N_vVel_Int               =   9.8949315234853E+02
(PID.TID 0000.0001) // =======================================================
(PID.TID 0000.0001) // End OBCS MONITOR field statistics
(PID.TID 0000.0001) // =======================================================
 cg2d: Sum(rhs),rhsMax =   4.50808320658577E+00  2.99967872775653E+02
(PID.TID 0000.0001)      cg2d_init_res =   1.16663883694230E-05
(PID.TID 0000.0001)      cg2d_iters(min,last) =      -1      85
(PID.TID 0000.0001)      cg2d_last_res =   8.69611130656602E-12
(PID.TID 0000.0001) // =======================================================
(PID.TID 0000.0001) // Begin MONITOR dynamic field statistics
(PID.TID 0000.0001) // =======================================================
(PID.TID 0000.0001) %MON time_tsnumber                =                  1494
(PID.TID 0000.0001) %MON time_secondsf                =   1.4940000000000E+05
(PID.TID 0000.0001) %MON dynstat_eta_max              =   5.8030133639746E+00
(PID.TID 0000.0001) %MON dynstat_eta_min              =  -1.4194587272367E+01
(PID.TID 0000.0001) %MON dynstat_eta_mean             =  -2.5042224625466E+00
(PID.TID 0000.0001) %MON dynstat_eta_sd               =   4.9501810060374E+00
(PID.TID 0000.0001) %MON dynstat_eta_del2             =   2.0717060953129E-01
(PID.TID 0000.0001) %MON dynstat_uvel_max             =   1.4399433153951E-02
(PID.TID 0000.0001) %MON dynstat_uvel_min             =  -6.4253382517001E-02
(PID.TID 0000.0001) %MON dynstat_uvel_mean            =  -1.0469606120076E-07
(PID.TID 0000.0001) %MON dynstat_uvel_sd              =   1.8836294202513E-03
(PID.TID 0000.0001) %MON dynstat_uvel_del2            =   2.9121145485506E-06
(PID.TID 0000.0001) %MON dynstat_vvel_max             =   3.9838645760425E-02
(PID.TID 0000.0001) %MON dynstat_vvel_min             =  -2.2554829113458E-02
(PID.TID 0000.0001) %MON dynstat_vvel_mean            =   1.5306098798001E-05
(PID.TID 0000.0001) %MON dynstat_vvel_sd              =   9.8213600590148E-04
(PID.TID 0000.0001) %MON dynstat_vvel_del2            =   2.0371266145192E-06
(PID.TID 0000.0001) %MON dynstat_wvel_max             =   2.2231059627855E-03
(PID.TID 0000.0001) %MON dynstat_wvel_min             =  -2.1720693887095E-03
(PID.TID 0000.0001) %MON dynstat_wvel_mean            =   7.4442119764959E-09
(PID.TID 0000.0001) %MON dynstat_wvel_sd              =   3.6681289058340E-05
(PID.TID 0000.0001) %MON dynstat_wvel_del2            =   1.4451957120335E-07
(PID.TID 0000.0001) %MON dynstat_theta_max            =   1.2000000000000E+00
(PID.TID 0000.0001) %MON dynstat_theta_min            =  -1.0000000000000E+00
(PID.TID 0000.0001) %MON dynstat_theta_mean           =   5.6817896349121E-01
(PID.TID 0000.0001) %MON dynstat_theta_sd             =   8.6808953395021E-01
(PID.TID 0000.0001) %MON dynstat_theta_del2           =   6.4130260402065E-06
(PID.TID 0000.0001) %MON dynstat_salt_max             =   3.4700000000000E+01
(PID.TID 0000.0001) %MON dynstat_salt_min             =   3.4000000000000E+01
(PID.TID 0000.0001) %MON dynstat_salt_mean            =   3.4498885609954E+01
(PID.TID 0000.0001) %MON dynstat_salt_sd              =   2.7617806014171E-01
(PID.TID 0000.0001) %MON dynstat_salt_del2            =   2.5422555991024E-06
(PID.TID 0000.0001) %MON advcfl_uvel_max              =   6.4253382517001E-03
(PID.TID 0000.0001) %MON advcfl_vvel_max              =   3.9838645760425E-03
(PID.TID 0000.0001) %MON advcfl_wvel_max              =   1.1115529813928E-02
(PID.TID 0000.0001) %MON advcfl_W_hf_max              =   1.1115529813928E-02
(PID.TID 0000.0001) %MON pe_b_mean                    =  -8.2966204814042E-01
(PID.TID 0000.0001) %MON ke_max                       =   1.7937326425260E-03
(PID.TID 0000.0001) %MON ke_mean                      =   2.2212533369652E-06
(PID.TID 0000.0001) %MON ke_vol                       =   4.2724649270320E+12
(PID.TID 0000.0001) // =======================================================
(PID.TID 0000.0001) // End MONITOR dynamic field statistics
(PID.TID 0000.0001) // =======================================================
(PID.TID 0000.0001) // =======================================================
(PID.TID 0000.0001) // Begin OBCS MONITOR field statistics
(PID.TID 0000.0001) // =======================================================
(PID.TID 0000.0001) %MON obc_N_vVel_max               =   1.4988717677172E-05
(PID.TID 0000.0001) %MON obc_N_vVel_min               =   1.4988717677172E-05
(PID.TID 0000.0001) %MON obc_N_vVel_mean              =   1.4988717677172E-05
(PID.TID 0000.0001) %MON obc_N_vVel_sd                =  -6.6691436887088E-24
(PID.TID 0000.0001) %MON obc_N_vVel_Int               =   9.8925536669336E+02
(PID.TID 0000.0001) // =======================================================
(PID.TID 0000.0001) // End OBCS MONITOR field statistics
(PID.TID 0000.0001) // =======================================================
 cg2d: Sum(rhs),rhsMax =   4.50808454102577E+00  2.99967950850701E+02
(PID.TID 0000.0001)      cg2d_init_res =   1.16791273865737E-05
(PID.TID 0000.0001)      cg2d_iters(min,last) =      -1      85
(PID.TID 0000.0001)      cg2d_last_res =   8.69827472700578E-12
(PID.TID 0000.0001) // =======================================================
(PID.TID 0000.0001) // Begin MONITOR dynamic field statistics
(PID.TID 0000.0001) // =======================================================
(PID.TID 0000.0001) %MON time_tsnumber                =                  1495
(PID.TID 0000.0001) %MON time_secondsf                =   1.4950000000000E+05
(PID.TID 0000.0001) %MON dynstat_eta_max              =   5.8030494394003E+00
(PID.TID 0000.0001) %MON dynstat_eta_min              =  -1.4194617212884E+01
(PID.TID 0000.0001) %MON dynstat_eta_mean             =  -2.5042238556171E+00
(PID.TID 0000.0001) %MON dynstat_eta_sd               =   4.9501821075361E+00
(PID.TID 0000.0001) %MON dynstat_eta_del2             =   2.0717066886397E-01
(PID.TID 0000.0001) %MON dynstat_uvel_max             =   1.4430581032801E-02
(PID.TID 0000.0001) %MON dynstat_uvel_min             =  -6.4373292425152E-02
(PID.TID 0000.0001) %MON dynstat_uvel_mean            =  -1.0462152149579E-07
(PID.TID 0000.0001) %MON dynstat_uvel_sd              =   1.8876289654467E-03
(PID.TID 0000.0001) %MON dynstat_uvel_del2            =   2.9191454473400E-06
(PID.TID 0000.0001) %MON dynstat_vvel_max             =   3.9885324483799E-02
(PID.TID 0000.0001) %MON dynstat_vvel_min             =  -2.2606841883935E-02
(PID.TID 0000.0001) %MON dynstat_vvel_mean            =   1.5300244885274E-05
(PID.TID 0000.0001) %MON dynstat_vvel_sd              =   9.8400224536805E-04
(PID.TID 0000.0001) %MON dynstat_vvel_del2            =   2.0410367748768E-06
(PID.TID 0000.0001) %MON dynstat_wvel_max             =   2.2261490746832E-03
(PID.TID 0000.0001) %MON dynstat_wvel_min             =  -2.1753230414777E-03
(PID.TID 0000.0001) %MON dynstat_wvel_mean            =   7.4301923439754E-09
(PID.TID 0000.0001) %MON dynstat_wvel_sd              =   3.6732000715523E-05
(PID.TID 0000.0001) %MON dynstat_wvel_del2            =   1.4474045213313E-07
(PID.TID 0000.0001) %MON dynstat_theta_max            =   1.2000000000000E+00
(PID.TID 0000.0001) %MON dynstat_theta_min            =  -1.0000000000000E+00
(PID.TID 0000.0001) %MON dynstat_theta_mean           =   5.6817714262955E-01
(PID.TID 0000.0001) %MON dynstat_theta_sd             =   8.6808859944868E-01
(PID.TID 0000.0001) %MON dynstat_theta_del2           =   6.4247515801925E-06
(PID.TID 0000.0001) %MON dynstat_salt_max             =   3.4700000000000E+01
(PID.TID 0000.0001) %MON dynstat_salt_min             =   3.4000000000000E+01
(PID.TID 0000.0001) %MON dynstat_salt_mean            =   3.4498884880984E+01
(PID.TID 0000.0001) %MON dynstat_salt_sd              =   2.7617770438275E-01
(PID.TID 0000.0001) %MON dynstat_salt_del2            =   2.5469137509459E-06
(PID.TID 0000.0001) %MON advcfl_uvel_max              =   6.4373292425152E-03
(PID.TID 0000.0001) %MON advcfl_vvel_max              =   3.9885324483799E-03
(PID.TID 0000.0001) %MON advcfl_wvel_max              =   1.1130745373416E-02
(PID.TID 0000.0001) %MON advcfl_W_hf_max              =   1.1130745373416E-02
(PID.TID 0000.0001) %MON pe_b_mean                    =  -8.2966164393151E-01
(PID.TID 0000.0001) %MON ke_max                       =   1.8017099471970E-03
(PID.TID 0000.0001) %MON ke_mean                      =   2.2304799781000E-06
(PID.TID 0000.0001) %MON ke_vol                       =   4.2724649185725E+12
(PID.TID 0000.0001) // =======================================================
(PID.TID 0000.0001) // End MONITOR dynamic field statistics
(PID.TID 0000.0001) // =======================================================
(PID.TID 0000.0001) // =======================================================
(PID.TID 0000.0001) // Begin OBCS MONITOR field statistics
(PID.TID 0000.0001) // =======================================================
(PID.TID 0000.0001) %MON obc_N_vVel_max               =   1.4984167525344E-05
(PID.TID 0000.0001) %MON obc_N_vVel_min               =   1.4984167525344E-05
(PID.TID 0000.0001) %MON obc_N_vVel_mean              =   1.4984167525344E-05
(PID.TID 0000.0001) %MON obc_N_vVel_sd                =  -2.5849394142282E-25
(PID.TID 0000.0001) %MON obc_N_vVel_Int               =   9.8895505667271E+02
(PID.TID 0000.0001) // =======================================================
(PID.TID 0000.0001) // End OBCS MONITOR field statistics
(PID.TID 0000.0001) // =======================================================
 cg2d: Sum(rhs),rhsMax =   4.50808581882514E+00  2.99968028856433E+02
(PID.TID 0000.0001)      cg2d_init_res =   1.16919667104601E-05
(PID.TID 0000.0001)      cg2d_iters(min,last) =      -1      85
(PID.TID 0000.0001)      cg2d_last_res =   8.70095843373484E-12
(PID.TID 0000.0001) // =======================================================
(PID.TID 0000.0001) // Begin MONITOR dynamic field statistics
(PID.TID 0000.0001) // =======================================================
(PID.TID 0000.0001) %MON time_tsnumber                =                  1496
(PID.TID 0000.0001) %MON time_secondsf                =   1.4960000000000E+05
(PID.TID 0000.0001) %MON dynstat_eta_max              =   5.8030856394275E+00
(PID.TID 0000.0001) %MON dynstat_eta_min              =  -1.4194647147053E+01
(PID.TID 0000.0001) %MON dynstat_eta_mean             =  -2.5042252166456E+00
(PID.TID 0000.0001) %MON dynstat_eta_sd               =   4.9501831988310E+00
(PID.TID 0000.0001) %MON dynstat_eta_del2             =   2.0717072828078E-01
(PID.TID 0000.0001) %MON dynstat_uvel_max             =   1.4461775644980E-02
(PID.TID 0000.0001) %MON dynstat_uvel_min             =  -6.4493230510969E-02
(PID.TID 0000.0001) %MON dynstat_uvel_mean            =  -1.0455424925779E-07
(PID.TID 0000.0001) %MON dynstat_uvel_sd              =   1.8916348795116E-03
(PID.TID 0000.0001) %MON dynstat_uvel_del2            =   2.9261924193086E-06
(PID.TID 0000.0001) %MON dynstat_vvel_max             =   3.9931960041339E-02
(PID.TID 0000.0001) %MON dynstat_vvel_min             =  -2.2658935438006E-02
(PID.TID 0000.0001) %MON dynstat_vvel_mean            =   1.5293535424218E-05
(PID.TID 0000.0001) %MON dynstat_vvel_sd              =   9.8587055241784E-04
(PID.TID 0000.0001) %MON dynstat_vvel_del2            =   2.0449512953289E-06
(PID.TID 0000.0001) %MON dynstat_wvel_max             =   2.2291897784614E-03
(PID.TID 0000.0001) %MON dynstat_wvel_min             =  -2.1785759159810E-03
(PID.TID 0000.0001) %MON dynstat_wvel_mean            =   7.4162329387322E-09
(PID.TID 0000.0001) %MON dynstat_wvel_sd              =   3.6779554095371E-05
(PID.TID 0000.0001) %MON dynstat_wvel_del2            =   1.4495412460696E-07
(PID.TID 0000.0001) %MON dynstat_theta_max            =   1.2000000000000E+00
(PID.TID 0000.0001) %MON dynstat_theta_min            =  -1.0000000000000E+00
(PID.TID 0000.0001) %MON dynstat_theta_mean           =   5.6817531867380E-01
(PID.TID 0000.0001) %MON dynstat_theta_sd             =   8.6808766360970E-01
(PID.TID 0000.0001) %MON dynstat_theta_del2           =   6.4364981933798E-06
(PID.TID 0000.0001) %MON dynstat_salt_max             =   3.4700000000000E+01
(PID.TID 0000.0001) %MON dynstat_salt_min             =   3.4000000000000E+01
(PID.TID 0000.0001) %MON dynstat_salt_mean            =   3.4498884150772E+01
(PID.TID 0000.0001) %MON dynstat_salt_sd              =   2.7617734813871E-01
(PID.TID 0000.0001) %MON dynstat_salt_del2            =   2.5515796262402E-06
(PID.TID 0000.0001) %MON advcfl_uvel_max              =   6.4493230510969E-03
(PID.TID 0000.0001) %MON advcfl_vvel_max              =   3.9931960041339E-03
(PID.TID 0000.0001) %MON advcfl_wvel_max              =   1.1145948892307E-02
(PID.TID 0000.0001) %MON advcfl_W_hf_max              =   1.1145948892307E-02
(PID.TID 0000.0001) %MON pe_b_mean                    =  -8.2966122888832E-01
(PID.TID 0000.0001) %MON ke_max                       =   1.8097137765444E-03
(PID.TID 0000.0001) %MON ke_mean                      =   2.2397396153464E-06
(PID.TID 0000.0001) %MON ke_vol                       =   4.2724649102976E+12
(PID.TID 0000.0001) // =======================================================
(PID.TID 0000.0001) // End MONITOR dynamic field statistics
(PID.TID 0000.0001) // =======================================================
(PID.TID 0000.0001) // =======================================================
(PID.TID 0000.0001) // Begin OBCS MONITOR field statistics
(PID.TID 0000.0001) // =======================================================
(PID.TID 0000.0001) %MON obc_N_vVel_max               =   1.4978788025061E-05
(PID.TID 0000.0001) %MON obc_N_vVel_min               =   1.4978788025060E-05
(PID.TID 0000.0001) %MON obc_N_vVel_mean              =   1.4978788025061E-05
(PID.TID 0000.0001) %MON obc_N_vVel_sd                =  -7.3412279364081E-24
(PID.TID 0000.0001) %MON obc_N_vVel_Int               =   9.8860000965400E+02
(PID.TID 0000.0001) // =======================================================
(PID.TID 0000.0001) // End OBCS MONITOR field statistics
(PID.TID 0000.0001) // =======================================================
 cg2d: Sum(rhs),rhsMax =   4.50808703851763E+00  2.99968106794228E+02
(PID.TID 0000.0001)      cg2d_init_res =   1.17049611419329E-05
(PID.TID 0000.0001)      cg2d_iters(min,last) =      -1      85
(PID.TID 0000.0001)      cg2d_last_res =   8.70424636607557E-12
(PID.TID 0000.0001) // =======================================================
(PID.TID 0000.0001) // Begin MONITOR dynamic field statistics
(PID.TID 0000.0001) // =======================================================
(PID.TID 0000.0001) %MON time_tsnumber                =                  1497
(PID.TID 0000.0001) %MON time_secondsf                =   1.4970000000000E+05
(PID.TID 0000.0001) %MON dynstat_eta_max              =   5.8031219654350E+00
(PID.TID 0000.0001) %MON dynstat_eta_min              =  -1.4194677074257E+01
(PID.TID 0000.0001) %MON dynstat_eta_mean             =  -2.5042265448291E+00
(PID.TID 0000.0001) %MON dynstat_eta_sd               =   4.9501842797952E+00
(PID.TID 0000.0001) %MON dynstat_eta_del2             =   2.0717078778185E-01
(PID.TID 0000.0001) %MON dynstat_uvel_max             =   1.4493017007551E-02
(PID.TID 0000.0001) %MON dynstat_uvel_min             =  -6.4613195663480E-02
(PID.TID 0000.0001) %MON dynstat_uvel_mean            =  -1.0449512296414E-07
(PID.TID 0000.0001) %MON dynstat_uvel_sd              =   1.8956471603792E-03
(PID.TID 0000.0001) %MON dynstat_uvel_del2            =   2.9332554893441E-06
(PID.TID 0000.0001) %MON dynstat_vvel_max             =   3.9978552266896E-02
(PID.TID 0000.0001) %MON dynstat_vvel_min             =  -2.2711109547478E-02
(PID.TID 0000.0001) %MON dynstat_vvel_mean            =   1.5286137234221E-05
(PID.TID 0000.0001) %MON dynstat_vvel_sd              =   9.8774112359128E-04
(PID.TID 0000.0001) %MON dynstat_vvel_del2            =   2.0488703989503E-06
(PID.TID 0000.0001) %MON dynstat_wvel_max             =   2.2322280553914E-03
(PID.TID 0000.0001) %MON dynstat_wvel_min             =  -2.1818279751160E-03
(PID.TID 0000.0001) %MON dynstat_wvel_mean            =   7.4026681149630E-09
(PID.TID 0000.0001) %MON dynstat_wvel_sd              =   3.6824417710870E-05
(PID.TID 0000.0001) %MON dynstat_wvel_del2            =   1.4516039696422E-07
(PID.TID 0000.0001) %MON dynstat_theta_max            =   1.2000000000000E+00
(PID.TID 0000.0001) %MON dynstat_theta_min            =  -1.0000000000000E+00
(PID.TID 0000.0001) %MON dynstat_theta_mean           =   5.6817349161964E-01
(PID.TID 0000.0001) %MON dynstat_theta_sd             =   8.6808672643467E-01
(PID.TID 0000.0001) %MON dynstat_theta_del2           =   6.4482653617702E-06
(PID.TID 0000.0001) %MON dynstat_salt_max             =   3.4700000000000E+01
(PID.TID 0000.0001) %MON dynstat_salt_min             =   3.4000000000000E+01
(PID.TID 0000.0001) %MON dynstat_salt_mean            =   3.4498883419319E+01
(PID.TID 0000.0001) %MON dynstat_salt_sd              =   2.7617699140996E-01
(PID.TID 0000.0001) %MON dynstat_salt_del2            =   2.5562530878178E-06
(PID.TID 0000.0001) %MON advcfl_uvel_max              =   6.4613195663480E-03
(PID.TID 0000.0001) %MON advcfl_vvel_max              =   3.9978552266896E-03
(PID.TID 0000.0001) %MON advcfl_wvel_max              =   1.1161140276957E-02
(PID.TID 0000.0001) %MON advcfl_W_hf_max              =   1.1161140276957E-02
(PID.TID 0000.0001) %MON pe_b_mean                    =  -8.2966080283843E-01
(PID.TID 0000.0001) %MON ke_max                       =   1.8177441435097E-03
(PID.TID 0000.0001) %MON ke_mean                      =   2.2490325281408E-06
(PID.TID 0000.0001) %MON ke_vol                       =   4.2724649022131E+12
(PID.TID 0000.0001) // =======================================================
(PID.TID 0000.0001) // End MONITOR dynamic field statistics
(PID.TID 0000.0001) // =======================================================
(PID.TID 0000.0001) // =======================================================
(PID.TID 0000.0001) // Begin OBCS MONITOR field statistics
(PID.TID 0000.0001) // =======================================================
(PID.TID 0000.0001) %MON obc_N_vVel_max               =   1.4972713865217E-05
(PID.TID 0000.0001) %MON obc_N_vVel_min               =   1.4972713865216E-05
(PID.TID 0000.0001) %MON obc_N_vVel_mean              =   1.4972713865217E-05
(PID.TID 0000.0001) %MON obc_N_vVel_sd                =  -2.2618219874497E-23
(PID.TID 0000.0001) %MON obc_N_vVel_Int               =   9.8819911510429E+02
(PID.TID 0000.0001) // =======================================================
(PID.TID 0000.0001) // End OBCS MONITOR field statistics
(PID.TID 0000.0001) // =======================================================
 cg2d: Sum(rhs),rhsMax =   4.50808819890031E+00  2.99968184667622E+02
(PID.TID 0000.0001)      cg2d_init_res =   1.17181636433107E-05
(PID.TID 0000.0001)      cg2d_iters(min,last) =      -1      85
(PID.TID 0000.0001)      cg2d_last_res =   8.70820160590573E-12
(PID.TID 0000.0001) // =======================================================
(PID.TID 0000.0001) // Begin MONITOR dynamic field statistics
(PID.TID 0000.0001) // =======================================================
(PID.TID 0000.0001) %MON time_tsnumber                =                  1498
(PID.TID 0000.0001) %MON time_secondsf                =   1.4980000000000E+05
(PID.TID 0000.0001) %MON dynstat_eta_max              =   5.8031584184407E+00
(PID.TID 0000.0001) %MON dynstat_eta_min              =  -1.4194706994089E+01
(PID.TID 0000.0001) %MON dynstat_eta_mean             =  -2.5042278395290E+00
(PID.TID 0000.0001) %MON dynstat_eta_sd               =   4.9501853503655E+00
(PID.TID 0000.0001) %MON dynstat_eta_del2             =   2.0717084736738E-01
(PID.TID 0000.0001) %MON dynstat_uvel_max             =   1.4524305136788E-02
(PID.TID 0000.0001) %MON dynstat_uvel_min             =  -6.4733186777054E-02
(PID.TID 0000.0001) %MON dynstat_uvel_mean            =  -1.0444483864833E-07
(PID.TID 0000.0001) %MON dynstat_uvel_sd              =   1.8996658058556E-03
(PID.TID 0000.0001) %MON dynstat_uvel_del2            =   2.9403346822312E-06
(PID.TID 0000.0001) %MON dynstat_vvel_max             =   4.0025100997281E-02
(PID.TID 0000.0001) %MON dynstat_vvel_min             =  -2.2763363978612E-02
(PID.TID 0000.0001) %MON dynstat_vvel_mean            =   1.5278230380313E-05
(PID.TID 0000.0001) %MON dynstat_vvel_sd              =   9.8961418317660E-04
(PID.TID 0000.0001) %MON dynstat_vvel_del2            =   2.0527943878605E-06
(PID.TID 0000.0001) %MON dynstat_wvel_max             =   2.2352638867879E-03
(PID.TID 0000.0001) %MON dynstat_wvel_min             =  -2.1850791808678E-03
(PID.TID 0000.0001) %MON dynstat_wvel_mean            =   7.3898206091658E-09
(PID.TID 0000.0001) %MON dynstat_wvel_sd              =   3.6867155360292E-05
(PID.TID 0000.0001) %MON dynstat_wvel_del2            =   1.4535937245323E-07
(PID.TID 0000.0001) %MON dynstat_theta_max            =   1.2000000000000E+00
(PID.TID 0000.0001) %MON dynstat_theta_min            =  -1.0000000000000E+00
(PID.TID 0000.0001) %MON dynstat_theta_mean           =   5.6817166146258E-01
(PID.TID 0000.0001) %MON dynstat_theta_sd             =   8.6808578792706E-01
(PID.TID 0000.0001) %MON dynstat_theta_del2           =   6.4600537004956E-06
(PID.TID 0000.0001) %MON dynstat_salt_max             =   3.4700000000000E+01
(PID.TID 0000.0001) %MON dynstat_salt_min             =   3.4000000000000E+01
(PID.TID 0000.0001) %MON dynstat_salt_mean            =   3.4498882686621E+01
(PID.TID 0000.0001) %MON dynstat_salt_sd              =   2.7617663419803E-01
(PID.TID 0000.0001) %MON dynstat_salt_del2            =   2.5609343891277E-06
(PID.TID 0000.0001) %MON advcfl_uvel_max              =   6.4733186777054E-03
(PID.TID 0000.0001) %MON advcfl_vvel_max              =   4.0025100997281E-03
(PID.TID 0000.0001) %MON advcfl_wvel_max              =   1.1176319433939E-02
(PID.TID 0000.0001) %MON advcfl_W_hf_max              =   1.1176319433939E-02
(PID.TID 0000.0001) %MON pe_b_mean                    =  -8.2966036565554E-01
(PID.TID 0000.0001) %MON ke_max                       =   1.8258010606118E-03
(PID.TID 0000.0001) %MON ke_mean                      =   2.2583590249090E-06
(PID.TID 0000.0001) %MON ke_vol                       =   4.2724648943237E+12
(PID.TID 0000.0001) // =======================================================
(PID.TID 0000.0001) // End MONITOR dynamic field statistics
(PID.TID 0000.0001) // =======================================================
(PID.TID 0000.0001) // =======================================================
(PID.TID 0000.0001) // Begin OBCS MONITOR field statistics
(PID.TID 0000.0001) // =======================================================
(PID.TID 0000.0001) %MON obc_N_vVel_max               =   1.4966093402887E-05
(PID.TID 0000.0001) %MON obc_N_vVel_min               =   1.4966093402886E-05
(PID.TID 0000.0001) %MON obc_N_vVel_mean              =   1.4966093402887E-05
(PID.TID 0000.0001) %MON obc_N_vVel_sd                =  -6.9534870242739E-24
(PID.TID 0000.0001) %MON obc_N_vVel_Int               =   9.8776216459052E+02
(PID.TID 0000.0001) // =======================================================
(PID.TID 0000.0001) // End OBCS MONITOR field statistics
(PID.TID 0000.0001) // =======================================================
 cg2d: Sum(rhs),rhsMax =   4.50808929905098E+00  2.99968262482145E+02
(PID.TID 0000.0001)      cg2d_init_res =   1.17316895917950E-05
(PID.TID 0000.0001)      cg2d_iters(min,last) =      -1      85
(PID.TID 0000.0001)      cg2d_last_res =   8.71302493880549E-12
(PID.TID 0000.0001) // =======================================================
(PID.TID 0000.0001) // Begin MONITOR dynamic field statistics
(PID.TID 0000.0001) // =======================================================
(PID.TID 0000.0001) %MON time_tsnumber                =                  1499
(PID.TID 0000.0001) %MON time_secondsf                =   1.4990000000000E+05
(PID.TID 0000.0001) %MON dynstat_eta_max              =   5.8031949990938E+00
(PID.TID 0000.0001) %MON dynstat_eta_min              =  -1.4194736906300E+01
(PID.TID 0000.0001) %MON dynstat_eta_mean             =  -2.5042291002790E+00
(PID.TID 0000.0001) %MON dynstat_eta_sd               =   4.9501864105456E+00
(PID.TID 0000.0001) %MON dynstat_eta_del2             =   2.0717090703804E-01
(PID.TID 0000.0001) %MON dynstat_uvel_max             =   1.4555640044613E-02
(PID.TID 0000.0001) %MON dynstat_uvel_min             =  -6.4853202748774E-02
(PID.TID 0000.0001) %MON dynstat_uvel_mean            =  -1.0440385350212E-07
(PID.TID 0000.0001) %MON dynstat_uvel_sd              =   1.9036908132767E-03
(PID.TID 0000.0001) %MON dynstat_uvel_del2            =   2.9474300413614E-06
(PID.TID 0000.0001) %MON dynstat_vvel_max             =   4.0071606071405E-02
(PID.TID 0000.0001) %MON dynstat_vvel_min             =  -2.2815698490852E-02
(PID.TID 0000.0001) %MON dynstat_vvel_mean            =   1.5270004134997E-05
(PID.TID 0000.0001) %MON dynstat_vvel_sd              =   9.9148997554905E-04
(PID.TID 0000.0001) %MON dynstat_vvel_del2            =   2.0567236312629E-06
(PID.TID 0000.0001) %MON dynstat_wvel_max             =   2.2382972540079E-03
(PID.TID 0000.0001) %MON dynstat_wvel_min             =  -2.1883294939548E-03
(PID.TID 0000.0001) %MON dynstat_wvel_mean            =   7.3779926164742E-09
(PID.TID 0000.0001) %MON dynstat_wvel_sd              =   3.6908413848288E-05
(PID.TID 0000.0001) %MON dynstat_wvel_del2            =   1.4555148886652E-07
(PID.TID 0000.0001) %MON dynstat_theta_max            =   1.2000000000000E+00
(PID.TID 0000.0001) %MON dynstat_theta_min            =  -1.0000000000000E+00
(PID.TID 0000.0001) %MON dynstat_theta_mean           =   5.6816982819759E-01
(PID.TID 0000.0001) %MON dynstat_theta_sd             =   8.6808484808809E-01
(PID.TID 0000.0001) %MON dynstat_theta_del2           =   6.4718617469151E-06
(PID.TID 0000.0001) %MON dynstat_salt_max             =   3.4700000000000E+01
(PID.TID 0000.0001) %MON dynstat_salt_min             =   3.4000000000000E+01
(PID.TID 0000.0001) %MON dynstat_salt_mean            =   3.4498881952677E+01
(PID.TID 0000.0001) %MON dynstat_salt_sd              =   2.7617627650327E-01
(PID.TID 0000.0001) %MON dynstat_salt_del2            =   2.5656232080660E-06
(PID.TID 0000.0001) %MON advcfl_uvel_max              =   6.4853202748774E-03
(PID.TID 0000.0001) %MON advcfl_vvel_max              =   4.0071606071405E-03
(PID.TID 0000.0001) %MON advcfl_wvel_max              =   1.1191486270039E-02
(PID.TID 0000.0001) %MON advcfl_W_hf_max              =   1.1191486270039E-02
(PID.TID 0000.0001) %MON pe_b_mean                    =  -8.2965991725973E-01
(PID.TID 0000.0001) %MON ke_max                       =   1.8338845397519E-03
(PID.TID 0000.0001) %MON ke_mean                      =   2.2677194350305E-06
(PID.TID 0000.0001) %MON ke_vol                       =   4.2724648866332E+12
(PID.TID 0000.0001) // =======================================================
(PID.TID 0000.0001) // End MONITOR dynamic field statistics
(PID.TID 0000.0001) // =======================================================
(PID.TID 0000.0001) // =======================================================
(PID.TID 0000.0001) // Begin OBCS MONITOR field statistics
(PID.TID 0000.0001) // =======================================================
(PID.TID 0000.0001) %MON obc_N_vVel_max               =   1.4959085329845E-05
(PID.TID 0000.0001) %MON obc_N_vVel_min               =   1.4959085329844E-05
(PID.TID 0000.0001) %MON obc_N_vVel_mean              =   1.4959085329844E-05
(PID.TID 0000.0001) %MON obc_N_vVel_sd                =   3.1464770707085E-12
(PID.TID 0000.0001) %MON obc_N_vVel_Int               =   9.8729963176972E+02
(PID.TID 0000.0001) // =======================================================
(PID.TID 0000.0001) // End OBCS MONITOR field statistics
(PID.TID 0000.0001) // =======================================================
 cg2d: Sum(rhs),rhsMax =   4.50809033833890E+00  2.99968340245150E+02
(PID.TID 0000.0001)      cg2d_init_res =   1.17454936675481E-05
(PID.TID 0000.0001)      cg2d_iters(min,last) =      -1      85
(PID.TID 0000.0001)      cg2d_last_res =   8.71857351503918E-12
(PID.TID 0000.0001) // =======================================================
(PID.TID 0000.0001) // Begin MONITOR dynamic field statistics
(PID.TID 0000.0001) // =======================================================
(PID.TID 0000.0001) %MON time_tsnumber                =                  1500
(PID.TID 0000.0001) %MON time_secondsf                =   1.5000000000000E+05
(PID.TID 0000.0001) %MON dynstat_eta_max              =   5.8032317076528E+00
(PID.TID 0000.0001) %MON dynstat_eta_min              =  -1.4194766810857E+01
(PID.TID 0000.0001) %MON dynstat_eta_mean             =  -2.5042303267902E+00
(PID.TID 0000.0001) %MON dynstat_eta_sd               =   4.9501874603771E+00
(PID.TID 0000.0001) %MON dynstat_eta_del2             =   2.0717096679323E-01
(PID.TID 0000.0001) %MON dynstat_uvel_max             =   1.4587021741583E-02
(PID.TID 0000.0001) %MON dynstat_uvel_min             =  -6.4973242494233E-02
(PID.TID 0000.0001) %MON dynstat_uvel_mean            =  -1.0437245254106E-07
(PID.TID 0000.0001) %MON dynstat_uvel_sd              =   1.9077221798478E-03
(PID.TID 0000.0001) %MON dynstat_uvel_del2            =   2.9545416074339E-06
(PID.TID 0000.0001) %MON dynstat_vvel_max             =   4.0118067329408E-02
(PID.TID 0000.0001) %MON dynstat_vvel_min             =  -2.2868112839332E-02
(PID.TID 0000.0001) %MON dynstat_vvel_mean            =   1.5261652888595E-05
(PID.TID 0000.0001) %MON dynstat_vvel_sd              =   9.9336875963356E-04
(PID.TID 0000.0001) %MON dynstat_vvel_del2            =   2.0606585738473E-06
(PID.TID 0000.0001) %MON dynstat_wvel_max             =   2.2413281384592E-03
(PID.TID 0000.0001) %MON dynstat_wvel_min             =  -2.1915788739579E-03
(PID.TID 0000.0001) %MON dynstat_wvel_mean            =   7.3674650454330E-09
(PID.TID 0000.0001) %MON dynstat_wvel_sd              =   3.6948907087881E-05
(PID.TID 0000.0001) %MON dynstat_wvel_del2            =   1.4573754146566E-07
(PID.TID 0000.0001) %MON dynstat_theta_max            =   1.2000000000000E+00
(PID.TID 0000.0001) %MON dynstat_theta_min            =  -1.0000000000000E+00
(PID.TID 0000.0001) %MON dynstat_theta_mean           =   5.6816799181869E-01
(PID.TID 0000.0001) %MON dynstat_theta_sd             =   8.6808390691710E-01
(PID.TID 0000.0001) %MON dynstat_theta_del2           =   6.4836879278443E-06
(PID.TID 0000.0001) %MON dynstat_salt_max             =   3.4700000000000E+01
(PID.TID 0000.0001) %MON dynstat_salt_min             =   3.4000000000000E+01
(PID.TID 0000.0001) %MON dynstat_salt_mean            =   3.4498881217485E+01
(PID.TID 0000.0001) %MON dynstat_salt_sd              =   2.7617591832551E-01
(PID.TID 0000.0001) %MON dynstat_salt_del2            =   2.5703189334734E-06
(PID.TID 0000.0001) %MON advcfl_uvel_max              =   6.4973242494233E-03
(PID.TID 0000.0001) %MON advcfl_vvel_max              =   4.0118067329408E-03
(PID.TID 0000.0001) %MON advcfl_wvel_max              =   1.1206640692296E-02
(PID.TID 0000.0001) %MON advcfl_W_hf_max              =   1.1206640692296E-02
(PID.TID 0000.0001) %MON pe_b_mean                    =  -8.2965945761652E-01
(PID.TID 0000.0001) %MON ke_max                       =   1.8419945929862E-03
(PID.TID 0000.0001) %MON ke_mean                      =   2.2771141040964E-06
(PID.TID 0000.0001) %MON ke_vol                       =   4.2724648791443E+12
(PID.TID 0000.0001) // =======================================================
(PID.TID 0000.0001) // End MONITOR dynamic field statistics
(PID.TID 0000.0001) // =======================================================
(PID.TID 0000.0001) // =======================================================
(PID.TID 0000.0001) // Begin OBCS MONITOR field statistics
(PID.TID 0000.0001) // =======================================================
(PID.TID 0000.0001) %MON obc_N_vVel_max               =   1.4951855162061E-05
(PID.TID 0000.0001) %MON obc_N_vVel_min               =   1.4951855162060E-05
(PID.TID 0000.0001) %MON obc_N_vVel_mean              =   1.4951855162061E-05
(PID.TID 0000.0001) %MON obc_N_vVel_sd                =  -1.7913630140602E-23
(PID.TID 0000.0001) %MON obc_N_vVel_Int               =   9.8682244069602E+02
(PID.TID 0000.0001) // =======================================================
(PID.TID 0000.0001) // End OBCS MONITOR field statistics
(PID.TID 0000.0001) // =======================================================
 cg2d: Sum(rhs),rhsMax =   4.50809131646520E+00  2.99968417965604E+02
(PID.TID 0000.0001)      cg2d_init_res =   1.17595644024502E-05
(PID.TID 0000.0001)      cg2d_iters(min,last) =      -1      85
(PID.TID 0000.0001)      cg2d_last_res =   8.72474945729421E-12
(PID.TID 0000.0001) // =======================================================
(PID.TID 0000.0001) // Begin MONITOR dynamic field statistics
(PID.TID 0000.0001) // =======================================================
(PID.TID 0000.0001) %MON time_tsnumber                =                  1501
(PID.TID 0000.0001) %MON time_secondsf                =   1.5010000000000E+05
(PID.TID 0000.0001) %MON dynstat_eta_max              =   5.8032685439993E+00
(PID.TID 0000.0001) %MON dynstat_eta_min              =  -1.4194796707897E+01
(PID.TID 0000.0001) %MON dynstat_eta_mean             =  -2.5042315189714E+00
(PID.TID 0000.0001) %MON dynstat_eta_sd               =   4.9501884999764E+00
(PID.TID 0000.0001) %MON dynstat_eta_del2             =   2.0717102663243E-01
(PID.TID 0000.0001) %MON dynstat_uvel_max             =   1.4618450233037E-02
(PID.TID 0000.0001) %MON dynstat_uvel_min             =  -6.5093304934954E-02
(PID.TID 0000.0001) %MON dynstat_uvel_mean            =  -1.0435077089123E-07
(PID.TID 0000.0001) %MON dynstat_uvel_sd              =   1.9117599029362E-03
(PID.TID 0000.0001) %MON dynstat_uvel_del2            =   2.9616694044125E-06
(PID.TID 0000.0001) %MON dynstat_vvel_max             =   4.0164484611798E-02
(PID.TID 0000.0001) %MON dynstat_vvel_min             =  -2.2920606777751E-02
(PID.TID 0000.0001) %MON dynstat_vvel_mean            =   1.5253371936424E-05
(PID.TID 0000.0001) %MON dynstat_vvel_sd              =   9.9525080194263E-04
(PID.TID 0000.0001) %MON dynstat_vvel_del2            =   2.0645997331533E-06
(PID.TID 0000.0001) %MON dynstat_wvel_max             =   2.2443565215984E-03
(PID.TID 0000.0001) %MON dynstat_wvel_min             =  -2.1948272792562E-03
(PID.TID 0000.0001) %MON dynstat_wvel_mean            =   7.3584893549329E-09
(PID.TID 0000.0001) %MON dynstat_wvel_sd              =   3.6989396256495E-05
(PID.TID 0000.0001) %MON dynstat_wvel_del2            =   1.4591868147865E-07
(PID.TID 0000.0001) %MON dynstat_theta_max            =   1.2000000000000E+00
(PID.TID 0000.0001) %MON dynstat_theta_min            =  -1.0000000000000E+00
(PID.TID 0000.0001) %MON dynstat_theta_mean           =   5.6816615232106E-01
(PID.TID 0000.0001) %MON dynstat_theta_sd             =   8.6808296441565E-01
(PID.TID 0000.0001) %MON dynstat_theta_del2           =   6.4955310673044E-06
(PID.TID 0000.0001) %MON dynstat_salt_max             =   3.4700000000000E+01
(PID.TID 0000.0001) %MON dynstat_salt_min             =   3.4000000000000E+01
(PID.TID 0000.0001) %MON dynstat_salt_mean            =   3.4498880481043E+01
(PID.TID 0000.0001) %MON dynstat_salt_sd              =   2.7617555966533E-01
(PID.TID 0000.0001) %MON dynstat_salt_del2            =   2.5750212548603E-06
(PID.TID 0000.0001) %MON advcfl_uvel_max              =   6.5093304934954E-03
(PID.TID 0000.0001) %MON advcfl_vvel_max              =   4.0164484611798E-03
(PID.TID 0000.0001) %MON advcfl_wvel_max              =   1.1221782607992E-02
(PID.TID 0000.0001) %MON advcfl_W_hf_max              =   1.1221782607992E-02
(PID.TID 0000.0001) %MON pe_b_mean                    =  -8.2965898674646E-01
(PID.TID 0000.0001) %MON ke_max                       =   1.8501312321268E-03
(PID.TID 0000.0001) %MON ke_mean                      =   2.2865433876045E-06
(PID.TID 0000.0001) %MON ke_vol                       =   4.2724648718589E+12
(PID.TID 0000.0001) // =======================================================
(PID.TID 0000.0001) // End MONITOR dynamic field statistics
(PID.TID 0000.0001) // =======================================================
(PID.TID 0000.0001) // =======================================================
(PID.TID 0000.0001) // Begin OBCS MONITOR field statistics
(PID.TID 0000.0001) // =======================================================
(PID.TID 0000.0001) %MON obc_N_vVel_max               =   1.4944571650196E-05
(PID.TID 0000.0001) %MON obc_N_vVel_min               =   1.4944571650196E-05
(PID.TID 0000.0001) %MON obc_N_vVel_mean              =   1.4944571650196E-05
(PID.TID 0000.0001) %MON obc_N_vVel_sd                =  -1.2149215246873E-23
(PID.TID 0000.0001) %MON obc_N_vVel_Int               =   9.8634172891292E+02
(PID.TID 0000.0001) // =======================================================
(PID.TID 0000.0001) // End OBCS MONITOR field statistics
(PID.TID 0000.0001) // =======================================================
 cg2d: Sum(rhs),rhsMax =   4.50809223344778E+00  2.99968495653790E+02
(PID.TID 0000.0001)      cg2d_init_res =   1.17740127067211E-05
(PID.TID 0000.0001)      cg2d_iters(min,last) =      -1      85
(PID.TID 0000.0001)      cg2d_last_res =   8.73171164102509E-12
(PID.TID 0000.0001) // =======================================================
(PID.TID 0000.0001) // Begin MONITOR dynamic field statistics
(PID.TID 0000.0001) // =======================================================
(PID.TID 0000.0001) %MON time_tsnumber                =                  1502
(PID.TID 0000.0001) %MON time_secondsf                =   1.5020000000000E+05
(PID.TID 0000.0001) %MON dynstat_eta_max              =   5.8033055076450E+00
(PID.TID 0000.0001) %MON dynstat_eta_min              =  -1.4194826597747E+01
(PID.TID 0000.0001) %MON dynstat_eta_mean             =  -2.5042326769183E+00
(PID.TID 0000.0001) %MON dynstat_eta_sd               =   4.9501895295291E+00
(PID.TID 0000.0001) %MON dynstat_eta_del2             =   2.0717108655603E-01
(PID.TID 0000.0001) %MON dynstat_uvel_max             =   1.4649925535386E-02
(PID.TID 0000.0001) %MON dynstat_uvel_min             =  -6.5213388982293E-02
(PID.TID 0000.0001) %MON dynstat_uvel_mean            =  -1.0433870952233E-07
(PID.TID 0000.0001) %MON dynstat_uvel_sd              =   1.9158039797456E-03
(PID.TID 0000.0001) %MON dynstat_uvel_del2            =   2.9688134561379E-06
(PID.TID 0000.0001) %MON dynstat_vvel_max             =   4.0210857758510E-02
(PID.TID 0000.0001) %MON dynstat_vvel_min             =  -2.2973180059369E-02
(PID.TID 0000.0001) %MON dynstat_vvel_mean            =   1.5245353175760E-05
(PID.TID 0000.0001) %MON dynstat_vvel_sd              =   9.9713636706118E-04
(PID.TID 0000.0001) %MON dynstat_vvel_del2            =   2.0685476718758E-06
(PID.TID 0000.0001) %MON dynstat_wvel_max             =   2.2473823849434E-03
(PID.TID 0000.0001) %MON dynstat_wvel_min             =  -2.1980746671095E-03
(PID.TID 0000.0001) %MON dynstat_wvel_mean            =   7.3512785171594E-09
(PID.TID 0000.0001) %MON dynstat_wvel_sd              =   3.7030666478499E-05
(PID.TID 0000.0001) %MON dynstat_wvel_del2            =   1.4609638881088E-07
(PID.TID 0000.0001) %MON dynstat_theta_max            =   1.2000000000000E+00
(PID.TID 0000.0001) %MON dynstat_theta_min            =  -1.0000000000000E+00
(PID.TID 0000.0001) %MON dynstat_theta_mean           =   5.6816430969977E-01
(PID.TID 0000.0001) %MON dynstat_theta_sd             =   8.6808202058586E-01
(PID.TID 0000.0001) %MON dynstat_theta_del2           =   6.5073896192731E-06
(PID.TID 0000.0001) %MON dynstat_salt_max             =   3.4700000000000E+01
(PID.TID 0000.0001) %MON dynstat_salt_min             =   3.4000000000000E+01
(PID.TID 0000.0001) %MON dynstat_salt_mean            =   3.4498879743349E+01
(PID.TID 0000.0001) %MON dynstat_salt_sd              =   2.7617520052335E-01
(PID.TID 0000.0001) %MON dynstat_salt_del2            =   2.5797298026646E-06
(PID.TID 0000.0001) %MON advcfl_uvel_max              =   6.5213388982293E-03
(PID.TID 0000.0001) %MON advcfl_vvel_max              =   4.0210857758510E-03
(PID.TID 0000.0001) %MON advcfl_wvel_max              =   1.1236911924717E-02
(PID.TID 0000.0001) %MON advcfl_W_hf_max              =   1.1236911924717E-02
(PID.TID 0000.0001) %MON pe_b_mean                    =  -8.2965850471839E-01
(PID.TID 0000.0001) %MON ke_max                       =   1.8582944678802E-03
(PID.TID 0000.0001) %MON ke_mean                      =   2.2960076408782E-06
(PID.TID 0000.0001) %MON ke_vol                       =   4.2724648647773E+12
(PID.TID 0000.0001) // =======================================================
(PID.TID 0000.0001) // End MONITOR dynamic field statistics
(PID.TID 0000.0001) // =======================================================
(PID.TID 0000.0001) // =======================================================
(PID.TID 0000.0001) // Begin OBCS MONITOR field statistics
(PID.TID 0000.0001) // =======================================================
(PID.TID 0000.0001) %MON obc_N_vVel_max               =   1.4937403037912E-05
(PID.TID 0000.0001) %MON obc_N_vVel_min               =   1.4937403037911E-05
(PID.TID 0000.0001) %MON obc_N_vVel_mean              =   1.4937403037911E-05
(PID.TID 0000.0001) %MON obc_N_vVel_sd                =   4.9763158650056E-12
(PID.TID 0000.0001) %MON obc_N_vVel_Int               =   9.8586860050216E+02
(PID.TID 0000.0001) // =======================================================
(PID.TID 0000.0001) // End OBCS MONITOR field statistics
(PID.TID 0000.0001) // =======================================================
 cg2d: Sum(rhs),rhsMax =   4.50809308961683E+00  2.99968573321047E+02
(PID.TID 0000.0001)      cg2d_init_res =   1.17888670375611E-05
(PID.TID 0000.0001)      cg2d_iters(min,last) =      -1      85
(PID.TID 0000.0001)      cg2d_last_res =   8.73945655060490E-12
(PID.TID 0000.0001) // =======================================================
(PID.TID 0000.0001) // Begin MONITOR dynamic field statistics
(PID.TID 0000.0001) // =======================================================
(PID.TID 0000.0001) %MON time_tsnumber                =                  1503
(PID.TID 0000.0001) %MON time_secondsf                =   1.5030000000000E+05
(PID.TID 0000.0001) %MON dynstat_eta_max              =   5.8033425977385E+00
(PID.TID 0000.0001) %MON dynstat_eta_min              =  -1.4194856480903E+01
(PID.TID 0000.0001) %MON dynstat_eta_mean             =  -2.5042338009089E+00
(PID.TID 0000.0001) %MON dynstat_eta_sd               =   4.9501905492733E+00
(PID.TID 0000.0001) %MON dynstat_eta_del2             =   2.0717114656443E-01
(PID.TID 0000.0001) %MON dynstat_uvel_max             =   1.4681447661332E-02
(PID.TID 0000.0001) %MON dynstat_uvel_min             =  -6.5333493548935E-02
(PID.TID 0000.0001) %MON dynstat_uvel_mean            =  -1.0433592028356E-07
(PID.TID 0000.0001) %MON dynstat_uvel_sd              =   1.9198544072921E-03
(PID.TID 0000.0001) %MON dynstat_uvel_del2            =   2.9759737869909E-06
(PID.TID 0000.0001) %MON dynstat_vvel_max             =   4.0257186608071E-02
(PID.TID 0000.0001) %MON dynstat_vvel_min             =  -2.3025832433992E-02
(PID.TID 0000.0001) %MON dynstat_vvel_mean            =   1.5237781009605E-05
(PID.TID 0000.0001) %MON dynstat_vvel_sd              =   9.9902570924242E-04
(PID.TID 0000.0001) %MON dynstat_vvel_del2            =   2.0725029778687E-06
(PID.TID 0000.0001) %MON dynstat_wvel_max             =   2.2504057100776E-03
(PID.TID 0000.0001) %MON dynstat_wvel_min             =  -2.2013209938632E-03
(PID.TID 0000.0001) %MON dynstat_wvel_mean            =   7.3460059181069E-09
(PID.TID 0000.0001) %MON dynstat_wvel_sd              =   3.7073500986500E-05
(PID.TID 0000.0001) %MON dynstat_wvel_del2            =   1.4627242309598E-07
(PID.TID 0000.0001) %MON dynstat_theta_max            =   1.2000000000000E+00
(PID.TID 0000.0001) %MON dynstat_theta_min            =  -1.0000000000000E+00
(PID.TID 0000.0001) %MON dynstat_theta_mean           =   5.6816246394976E-01
(PID.TID 0000.0001) %MON dynstat_theta_sd             =   8.6808107542818E-01
(PID.TID 0000.0001) %MON dynstat_theta_del2           =   6.5192628098348E-06
(PID.TID 0000.0001) %MON dynstat_salt_max             =   3.4700000000000E+01
(PID.TID 0000.0001) %MON dynstat_salt_min             =   3.4000000000000E+01
(PID.TID 0000.0001) %MON dynstat_salt_mean            =   3.4498879004401E+01
(PID.TID 0000.0001) %MON dynstat_salt_sd              =   2.7617484090003E-01
(PID.TID 0000.0001) %MON dynstat_salt_del2            =   2.5844443527079E-06
(PID.TID 0000.0001) %MON advcfl_uvel_max              =   6.5333493548935E-03
(PID.TID 0000.0001) %MON advcfl_vvel_max              =   4.0257186608071E-03
(PID.TID 0000.0001) %MON advcfl_wvel_max              =   1.1252028550388E-02
(PID.TID 0000.0001) %MON advcfl_W_hf_max              =   1.1252028550388E-02
(PID.TID 0000.0001) %MON pe_b_mean                    =  -8.2965801164691E-01
(PID.TID 0000.0001) %MON ke_max                       =   1.8664843102518E-03
(PID.TID 0000.0001) %MON ke_mean                      =   2.3055072105539E-06
(PID.TID 0000.0001) %MON ke_vol                       =   4.2724648578991E+12
(PID.TID 0000.0001) // =======================================================
(PID.TID 0000.0001) // End MONITOR dynamic field statistics
(PID.TID 0000.0001) // =======================================================
(PID.TID 0000.0001) // =======================================================
(PID.TID 0000.0001) // Begin OBCS MONITOR field statistics
(PID.TID 0000.0001) // =======================================================
(PID.TID 0000.0001) %MON obc_N_vVel_max               =   1.4930513463683E-05
(PID.TID 0000.0001) %MON obc_N_vVel_min               =   1.4930513463683E-05
(PID.TID 0000.0001) %MON obc_N_vVel_mean              =   1.4930513463683E-05
(PID.TID 0000.0001) %MON obc_N_vVel_sd                =   4.0000968705861E-12
(PID.TID 0000.0001) %MON obc_N_vVel_Int               =   9.8541388860305E+02
(PID.TID 0000.0001) // =======================================================
(PID.TID 0000.0001) // End OBCS MONITOR field statistics
(PID.TID 0000.0001) // =======================================================
 cg2d: Sum(rhs),rhsMax =   4.50809388560048E+00  2.99968650979450E+02
(PID.TID 0000.0001)      cg2d_init_res =   1.18041255789474E-05
(PID.TID 0000.0001)      cg2d_iters(min,last) =      -1      85
(PID.TID 0000.0001)      cg2d_last_res =   8.74797109745702E-12
(PID.TID 0000.0001) // =======================================================
(PID.TID 0000.0001) // Begin MONITOR dynamic field statistics
(PID.TID 0000.0001) // =======================================================
(PID.TID 0000.0001) %MON time_tsnumber                =                  1504
(PID.TID 0000.0001) %MON time_secondsf                =   1.5040000000000E+05
(PID.TID 0000.0001) %MON dynstat_eta_max              =   5.8033798131059E+00
(PID.TID 0000.0001) %MON dynstat_eta_min              =  -1.4194886358006E+01
(PID.TID 0000.0001) %MON dynstat_eta_mean             =  -2.5042348913931E+00
(PID.TID 0000.0001) %MON dynstat_eta_sd               =   4.9501915594917E+00
(PID.TID 0000.0001) %MON dynstat_eta_del2             =   2.0717120665766E-01
(PID.TID 0000.0001) %MON dynstat_uvel_max             =   1.4713016626715E-02
(PID.TID 0000.0001) %MON dynstat_uvel_min             =  -6.5453617553606E-02
(PID.TID 0000.0001) %MON dynstat_uvel_mean            =  -1.0434182772658E-07
(PID.TID 0000.0001) %MON dynstat_uvel_sd              =   1.9239111826853E-03
(PID.TID 0000.0001) %MON dynstat_uvel_del2            =   2.9831504250993E-06
(PID.TID 0000.0001) %MON dynstat_vvel_max             =   4.0303470996768E-02
(PID.TID 0000.0001) %MON dynstat_vvel_min             =  -2.3078563650714E-02
(PID.TID 0000.0001) %MON dynstat_vvel_mean            =   1.5230828428994E-05
(PID.TID 0000.0001) %MON dynstat_vvel_sd              =   1.0009190648136E-03
(PID.TID 0000.0001) %MON dynstat_vvel_del2            =   2.0764662507756E-06
(PID.TID 0000.0001) %MON dynstat_wvel_max             =   2.2534264786427E-03
(PID.TID 0000.0001) %MON dynstat_wvel_min             =  -2.2045662149066E-03
(PID.TID 0000.0001) %MON dynstat_wvel_mean            =   7.3428011195989E-09
(PID.TID 0000.0001) %MON dynstat_wvel_sd              =   3.7118653691996E-05
(PID.TID 0000.0001) %MON dynstat_wvel_del2            =   1.4644875816881E-07
(PID.TID 0000.0001) %MON dynstat_theta_max            =   1.2000000000000E+00
(PID.TID 0000.0001) %MON dynstat_theta_min            =  -1.0000000000000E+00
(PID.TID 0000.0001) %MON dynstat_theta_mean           =   5.6816061506560E-01
(PID.TID 0000.0001) %MON dynstat_theta_sd             =   8.6808012894191E-01
(PID.TID 0000.0001) %MON dynstat_theta_del2           =   6.5311494531585E-06
(PID.TID 0000.0001) %MON dynstat_salt_max             =   3.4700000000000E+01
(PID.TID 0000.0001) %MON dynstat_salt_min             =   3.4000000000000E+01
(PID.TID 0000.0001) %MON dynstat_salt_mean            =   3.4498878264197E+01
(PID.TID 0000.0001) %MON dynstat_salt_sd              =   2.7617448079513E-01
(PID.TID 0000.0001) %MON dynstat_salt_del2            =   2.5891645878511E-06
(PID.TID 0000.0001) %MON advcfl_uvel_max              =   6.5453617553606E-03
(PID.TID 0000.0001) %MON advcfl_vvel_max              =   4.0303470996768E-03
(PID.TID 0000.0001) %MON advcfl_wvel_max              =   1.1267132393214E-02
(PID.TID 0000.0001) %MON advcfl_W_hf_max              =   1.1267132393214E-02
(PID.TID 0000.0001) %MON pe_b_mean                    =  -8.2965750768862E-01
(PID.TID 0000.0001) %MON ke_max                       =   1.8747007688533E-03
(PID.TID 0000.0001) %MON ke_mean                      =   2.3150424273589E-06
(PID.TID 0000.0001) %MON ke_vol                       =   4.2724648512226E+12
(PID.TID 0000.0001) // =======================================================
(PID.TID 0000.0001) // End MONITOR dynamic field statistics
(PID.TID 0000.0001) // =======================================================
(PID.TID 0000.0001) // =======================================================
(PID.TID 0000.0001) // Begin OBCS MONITOR field statistics
(PID.TID 0000.0001) // =======================================================
(PID.TID 0000.0001) %MON obc_N_vVel_max               =   1.4924059496312E-05
(PID.TID 0000.0001) %MON obc_N_vVel_min               =   1.4924059496311E-05
(PID.TID 0000.0001) %MON obc_N_vVel_mean              =   1.4924059496312E-05
(PID.TID 0000.0001) %MON obc_N_vVel_sd                =  -1.4527359507963E-23
(PID.TID 0000.0001) %MON obc_N_vVel_Int               =   9.8498792675657E+02
(PID.TID 0000.0001) // =======================================================
(PID.TID 0000.0001) // End OBCS MONITOR field statistics
(PID.TID 0000.0001) // =======================================================
 cg2d: Sum(rhs),rhsMax =   4.50809462230339E+00  2.99968728641510E+02
(PID.TID 0000.0001)      cg2d_init_res =   1.18198031111870E-05
(PID.TID 0000.0001)      cg2d_iters(min,last) =      -1      85
(PID.TID 0000.0001)      cg2d_last_res =   8.75715287451057E-12
(PID.TID 0000.0001) // =======================================================
(PID.TID 0000.0001) // Begin MONITOR dynamic field statistics
(PID.TID 0000.0001) // =======================================================
(PID.TID 0000.0001) %MON time_tsnumber                =                  1505
(PID.TID 0000.0001) %MON time_secondsf                =   1.5050000000000E+05
(PID.TID 0000.0001) %MON dynstat_eta_max              =   5.8034171522702E+00
(PID.TID 0000.0001) %MON dynstat_eta_min              =  -1.4194916229852E+01
(PID.TID 0000.0001) %MON dynstat_eta_mean             =  -2.5042359489777E+00
(PID.TID 0000.0001) %MON dynstat_eta_sd               =   4.9501925605170E+00
(PID.TID 0000.0001) %MON dynstat_eta_del2             =   2.0717126683644E-01
(PID.TID 0000.0001) %MON dynstat_uvel_max             =   1.4744632447895E-02
(PID.TID 0000.0001) %MON dynstat_uvel_min             =  -6.5573759917986E-02
(PID.TID 0000.0001) %MON dynstat_uvel_mean            =  -1.0435566753092E-07
(PID.TID 0000.0001) %MON dynstat_uvel_sd              =   1.9279743028792E-03
(PID.TID 0000.0001) %MON dynstat_uvel_del2            =   2.9903433953900E-06
(PID.TID 0000.0001) %MON dynstat_vvel_max             =   4.0349710757789E-02
(PID.TID 0000.0001) %MON dynstat_vvel_min             =  -2.3131373458780E-02
(PID.TID 0000.0001) %MON dynstat_vvel_mean            =   1.5224653358790E-05
(PID.TID 0000.0001) %MON dynstat_vvel_sd              =   1.0028166439234E-03
(PID.TID 0000.0001) %MON dynstat_vvel_del2            =   2.0804380686494E-06
(PID.TID 0000.0001) %MON dynstat_wvel_max             =   2.2564446723525E-03
(PID.TID 0000.0001) %MON dynstat_wvel_min             =  -2.2078102843549E-03
(PID.TID 0000.0001) %MON dynstat_wvel_mean            =   7.3417482127011E-09
(PID.TID 0000.0001) %MON dynstat_wvel_sd              =   3.7166820369664E-05
(PID.TID 0000.0001) %MON dynstat_wvel_del2            =   1.4662748315414E-07
(PID.TID 0000.0001) %MON dynstat_theta_max            =   1.2000000000000E+00
(PID.TID 0000.0001) %MON dynstat_theta_min            =  -1.0000000000000E+00
(PID.TID 0000.0001) %MON dynstat_theta_mean           =   5.6815876304120E-01
(PID.TID 0000.0001) %MON dynstat_theta_sd             =   8.6807918112369E-01
(PID.TID 0000.0001) %MON dynstat_theta_del2           =   6.5430484162099E-06
(PID.TID 0000.0001) %MON dynstat_salt_max             =   3.4700000000000E+01
(PID.TID 0000.0001) %MON dynstat_salt_min             =   3.4000000000000E+01
(PID.TID 0000.0001) %MON dynstat_salt_mean            =   3.4498877522734E+01
(PID.TID 0000.0001) %MON dynstat_salt_sd              =   2.7617412020774E-01
(PID.TID 0000.0001) %MON dynstat_salt_del2            =   2.5938901960477E-06
(PID.TID 0000.0001) %MON advcfl_uvel_max              =   6.5573759917986E-03
(PID.TID 0000.0001) %MON advcfl_vvel_max              =   4.0349710757789E-03
(PID.TID 0000.0001) %MON advcfl_wvel_max              =   1.1282223361762E-02
(PID.TID 0000.0001) %MON advcfl_W_hf_max              =   1.1282223361762E-02
(PID.TID 0000.0001) %MON pe_b_mean                    =  -8.2965699303711E-01
(PID.TID 0000.0001) %MON ke_max                       =   1.8829438527663E-03
(PID.TID 0000.0001) %MON ke_mean                      =   2.3246135971532E-06
(PID.TID 0000.0001) %MON ke_vol                       =   4.2724648447451E+12
(PID.TID 0000.0001) // =======================================================
(PID.TID 0000.0001) // End MONITOR dynamic field statistics
(PID.TID 0000.0001) // =======================================================
(PID.TID 0000.0001) // =======================================================
(PID.TID 0000.0001) // Begin OBCS MONITOR field statistics
(PID.TID 0000.0001) // =======================================================
(PID.TID 0000.0001) %MON obc_N_vVel_max               =   1.4918186690769E-05
(PID.TID 0000.0001) %MON obc_N_vVel_min               =   1.4918186690769E-05
(PID.TID 0000.0001) %MON obc_N_vVel_mean              =   1.4918186690769E-05
(PID.TID 0000.0001) %MON obc_N_vVel_sd                =  -1.6259268915495E-23
(PID.TID 0000.0001) %MON obc_N_vVel_Int               =   9.8460032159076E+02
(PID.TID 0000.0001) // =======================================================
(PID.TID 0000.0001) // End OBCS MONITOR field statistics
(PID.TID 0000.0001) // =======================================================
 cg2d: Sum(rhs),rhsMax =   4.50809530090399E+00  2.99968806319858E+02
(PID.TID 0000.0001)      cg2d_init_res =   1.18359233833641E-05
(PID.TID 0000.0001)      cg2d_iters(min,last) =      -1      85
(PID.TID 0000.0001)      cg2d_last_res =   8.76699676678497E-12
(PID.TID 0000.0001) // =======================================================
(PID.TID 0000.0001) // Begin MONITOR dynamic field statistics
(PID.TID 0000.0001) // =======================================================
(PID.TID 0000.0001) %MON time_tsnumber                =                  1506
(PID.TID 0000.0001) %MON time_secondsf                =   1.5060000000000E+05
(PID.TID 0000.0001) %MON dynstat_eta_max              =   5.8034546134974E+00
(PID.TID 0000.0001) %MON dynstat_eta_min              =  -1.4194946097337E+01
(PID.TID 0000.0001) %MON dynstat_eta_mean             =  -2.5042369744228E+00
(PID.TID 0000.0001) %MON dynstat_eta_sd               =   4.9501935527071E+00
(PID.TID 0000.0001) %MON dynstat_eta_del2             =   2.0717132710114E-01
(PID.TID 0000.0001) %MON dynstat_uvel_max             =   1.4776295141132E-02
(PID.TID 0000.0001) %MON dynstat_uvel_min             =  -6.5693919567479E-02
(PID.TID 0000.0001) %MON dynstat_uvel_mean            =  -1.0437650852449E-07
(PID.TID 0000.0001) %MON dynstat_uvel_sd              =   1.9320437646762E-03
(PID.TID 0000.0001) %MON dynstat_uvel_del2            =   2.9975527202141E-06
(PID.TID 0000.0001) %MON dynstat_vvel_max             =   4.0395905720695E-02
(PID.TID 0000.0001) %MON dynstat_vvel_min             =  -2.3184261608266E-02
(PID.TID 0000.0001) %MON dynstat_vvel_mean            =   1.5219395391203E-05
(PID.TID 0000.0001) %MON dynstat_vvel_sd              =   1.0047186234838E-03
(PID.TID 0000.0001) %MON dynstat_vvel_del2            =   2.0844189609939E-06
(PID.TID 0000.0001) %MON dynstat_wvel_max             =   2.2594602730067E-03
(PID.TID 0000.0001) %MON dynstat_wvel_min             =  -2.2110531550870E-03
(PID.TID 0000.0001) %MON dynstat_wvel_mean            =   7.3428842379858E-09
(PID.TID 0000.0001) %MON dynstat_wvel_sd              =   3.7218610819258E-05
(PID.TID 0000.0001) %MON dynstat_wvel_del2            =   1.4681069752292E-07
(PID.TID 0000.0001) %MON dynstat_theta_max            =   1.2000000000000E+00
(PID.TID 0000.0001) %MON dynstat_theta_min            =  -1.0000000000000E+00
(PID.TID 0000.0001) %MON dynstat_theta_mean           =   5.6815690787120E-01
(PID.TID 0000.0001) %MON dynstat_theta_sd             =   8.6807823197009E-01
(PID.TID 0000.0001) %MON dynstat_theta_del2           =   6.5549586275736E-06
(PID.TID 0000.0001) %MON dynstat_salt_max             =   3.4700000000000E+01
(PID.TID 0000.0001) %MON dynstat_salt_min             =   3.4000000000000E+01
(PID.TID 0000.0001) %MON dynstat_salt_mean            =   3.4498876780011E+01
(PID.TID 0000.0001) %MON dynstat_salt_sd              =   2.7617375913682E-01
(PID.TID 0000.0001) %MON dynstat_salt_del2            =   2.5986208945790E-06
(PID.TID 0000.0001) %MON advcfl_uvel_max              =   6.5693919567479E-03
(PID.TID 0000.0001) %MON advcfl_vvel_max              =   4.0395905720695E-03
(PID.TID 0000.0001) %MON advcfl_wvel_max              =   1.1297301365034E-02
(PID.TID 0000.0001) %MON advcfl_W_hf_max              =   1.1297301365034E-02
(PID.TID 0000.0001) %MON pe_b_mean                    =  -8.2965646792240E-01
(PID.TID 0000.0001) %MON ke_max                       =   1.8912135705919E-03
(PID.TID 0000.0001) %MON ke_mean                      =   2.3342209935557E-06
(PID.TID 0000.0001) %MON ke_vol                       =   4.2724648384631E+12
(PID.TID 0000.0001) // =======================================================
(PID.TID 0000.0001) // End MONITOR dynamic field statistics
(PID.TID 0000.0001) // =======================================================
(PID.TID 0000.0001) // =======================================================
(PID.TID 0000.0001) // Begin OBCS MONITOR field statistics
(PID.TID 0000.0001) // =======================================================
(PID.TID 0000.0001) %MON obc_N_vVel_max               =   1.4913026671311E-05
(PID.TID 0000.0001) %MON obc_N_vVel_min               =   1.4913026671311E-05
(PID.TID 0000.0001) %MON obc_N_vVel_mean              =   1.4913026671311E-05
(PID.TID 0000.0001) %MON obc_N_vVel_sd                =  -1.1709775546454E-23
(PID.TID 0000.0001) %MON obc_N_vVel_Int               =   9.8425976030656E+02
(PID.TID 0000.0001) // =======================================================
(PID.TID 0000.0001) // End OBCS MONITOR field statistics
(PID.TID 0000.0001) // =======================================================
 cg2d: Sum(rhs),rhsMax =   4.50809592281409E+00  2.99968884026927E+02
(PID.TID 0000.0001)      cg2d_init_res =   1.18524856030171E-05
(PID.TID 0000.0001)      cg2d_iters(min,last) =      -1      85
(PID.TID 0000.0001)      cg2d_last_res =   8.77742369419235E-12
(PID.TID 0000.0001) // =======================================================
(PID.TID 0000.0001) // Begin MONITOR dynamic field statistics
(PID.TID 0000.0001) // =======================================================
(PID.TID 0000.0001) %MON time_tsnumber                =                  1507
(PID.TID 0000.0001) %MON time_secondsf                =   1.5070000000000E+05
(PID.TID 0000.0001) %MON dynstat_eta_max              =   5.8034921948322E+00
(PID.TID 0000.0001) %MON dynstat_eta_min              =  -1.4194975961465E+01
(PID.TID 0000.0001) %MON dynstat_eta_mean             =  -2.5042379686165E+00
(PID.TID 0000.0001) %MON dynstat_eta_sd               =   4.9501945364439E+00
(PID.TID 0000.0001) %MON dynstat_eta_del2             =   2.0717138745207E-01
(PID.TID 0000.0001) %MON dynstat_uvel_max             =   1.4808004725491E-02
(PID.TID 0000.0001) %MON dynstat_uvel_min             =  -6.5814095431793E-02
(PID.TID 0000.0001) %MON dynstat_uvel_mean            =  -1.0440327974210E-07
(PID.TID 0000.0001) %MON dynstat_uvel_sd              =   1.9361195647819E-03
(PID.TID 0000.0001) %MON dynstat_uvel_del2            =   3.0047784215376E-06
(PID.TID 0000.0001) %MON dynstat_vvel_max             =   4.0442055710745E-02
(PID.TID 0000.0001) %MON dynstat_vvel_min             =  -2.3237227851128E-02
(PID.TID 0000.0001) %MON dynstat_vvel_mean            =   1.5215172922462E-05
(PID.TID 0000.0001) %MON dynstat_vvel_sd              =   1.0066251410442E-03
(PID.TID 0000.0001) %MON dynstat_vvel_del2            =   2.0884093822562E-06
(PID.TID 0000.0001) %MON dynstat_wvel_max             =   2.2624732624581E-03
(PID.TID 0000.0001) %MON dynstat_wvel_min             =  -2.2142947788217E-03
(PID.TID 0000.0001) %MON dynstat_wvel_mean            =   7.3461981453755E-09
(PID.TID 0000.0001) %MON dynstat_wvel_sd              =   3.7274523022282E-05
(PID.TID 0000.0001) %MON dynstat_wvel_del2            =   1.4700039883804E-07
(PID.TID 0000.0001) %MON dynstat_theta_max            =   1.2000000000000E+00
(PID.TID 0000.0001) %MON dynstat_theta_min            =  -1.0000000000000E+00
(PID.TID 0000.0001) %MON dynstat_theta_mean           =   5.6815504955018E-01
(PID.TID 0000.0001) %MON dynstat_theta_sd             =   8.6807728147875E-01
(PID.TID 0000.0001) %MON dynstat_theta_del2           =   6.5668791168615E-06
(PID.TID 0000.0001) %MON dynstat_salt_max             =   3.4700000000000E+01
(PID.TID 0000.0001) %MON dynstat_salt_min             =   3.4000000000000E+01
(PID.TID 0000.0001) %MON dynstat_salt_mean            =   3.4498876036026E+01
(PID.TID 0000.0001) %MON dynstat_salt_sd              =   2.7617339758167E-01
(PID.TID 0000.0001) %MON dynstat_salt_del2            =   2.6033564149973E-06
(PID.TID 0000.0001) %MON advcfl_uvel_max              =   6.5814095431793E-03
(PID.TID 0000.0001) %MON advcfl_vvel_max              =   4.0442055710745E-03
(PID.TID 0000.0001) %MON advcfl_wvel_max              =   1.1312366312291E-02
(PID.TID 0000.0001) %MON advcfl_W_hf_max              =   1.1312366312291E-02
(PID.TID 0000.0001) %MON pe_b_mean                    =  -8.2965593260290E-01
(PID.TID 0000.0001) %MON ke_max                       =   1.8995099304775E-03
(PID.TID 0000.0001) %MON ke_mean                      =   2.3438648515297E-06
(PID.TID 0000.0001) %MON ke_vol                       =   4.2724648323719E+12
(PID.TID 0000.0001) // =======================================================
(PID.TID 0000.0001) // End MONITOR dynamic field statistics
(PID.TID 0000.0001) // =======================================================
(PID.TID 0000.0001) // =======================================================
(PID.TID 0000.0001) // Begin OBCS MONITOR field statistics
(PID.TID 0000.0001) // =======================================================
(PID.TID 0000.0001) %MON obc_N_vVel_max               =   1.4908694378781E-05
(PID.TID 0000.0001) %MON obc_N_vVel_min               =   1.4908694378781E-05
(PID.TID 0000.0001) %MON obc_N_vVel_mean              =   1.4908694378781E-05
(PID.TID 0000.0001) %MON obc_N_vVel_sd                =   3.0884343021185E-12
(PID.TID 0000.0001) %MON obc_N_vVel_Int               =   9.8397382899953E+02
(PID.TID 0000.0001) // =======================================================
(PID.TID 0000.0001) // End OBCS MONITOR field statistics
(PID.TID 0000.0001) // =======================================================
 cg2d: Sum(rhs),rhsMax =   4.50809648964604E+00  2.99968961774594E+02
(PID.TID 0000.0001)      cg2d_init_res =   1.18694800075240E-05
(PID.TID 0000.0001)      cg2d_iters(min,last) =      -1      85
(PID.TID 0000.0001)      cg2d_last_res =   8.78834465841198E-12
(PID.TID 0000.0001) // =======================================================
(PID.TID 0000.0001) // Begin MONITOR dynamic field statistics
(PID.TID 0000.0001) // =======================================================
(PID.TID 0000.0001) %MON time_tsnumber                =                  1508
(PID.TID 0000.0001) %MON time_secondsf                =   1.5080000000000E+05
(PID.TID 0000.0001) %MON dynstat_eta_max              =   5.8035298941507E+00
(PID.TID 0000.0001) %MON dynstat_eta_min              =  -1.4195005823294E+01
(PID.TID 0000.0001) %MON dynstat_eta_mean             =  -2.5042389325534E+00
(PID.TID 0000.0001) %MON dynstat_eta_sd               =   4.9501955121259E+00
(PID.TID 0000.0001) %MON dynstat_eta_del2             =   2.0717144788950E-01
(PID.TID 0000.0001) %MON dynstat_uvel_max             =   1.4839761221639E-02
(PID.TID 0000.0001) %MON dynstat_uvel_min             =  -6.5934286444261E-02
(PID.TID 0000.0001) %MON dynstat_uvel_mean            =  -1.0443479928418E-07
(PID.TID 0000.0001) %MON dynstat_uvel_sd              =   1.9402016998139E-03
(PID.TID 0000.0001) %MON dynstat_uvel_del2            =   3.0120205211082E-06
(PID.TID 0000.0001) %MON dynstat_vvel_max             =   4.0488160548438E-02
(PID.TID 0000.0001) %MON dynstat_vvel_min             =  -2.3290271941065E-02
(PID.TID 0000.0001) %MON dynstat_vvel_mean            =   1.5212080787689E-05
(PID.TID 0000.0001) %MON dynstat_vvel_sd              =   1.0085362899523E-03
(PID.TID 0000.0001) %MON dynstat_vvel_del2            =   2.0924096870343E-06
(PID.TID 0000.0001) %MON dynstat_wvel_max             =   2.2654836226688E-03
(PID.TID 0000.0001) %MON dynstat_wvel_min             =  -2.2175351059091E-03
(PID.TID 0000.0001) %MON dynstat_wvel_mean            =   7.3516318636148E-09
(PID.TID 0000.0001) %MON dynstat_wvel_sd              =   3.7334920677715E-05
(PID.TID 0000.0001) %MON dynstat_wvel_del2            =   1.4719837011501E-07
(PID.TID 0000.0001) %MON dynstat_theta_max            =   1.2000000000000E+00
(PID.TID 0000.0001) %MON dynstat_theta_min            =  -1.0000000000000E+00
(PID.TID 0000.0001) %MON dynstat_theta_mean           =   5.6815318807263E-01
(PID.TID 0000.0001) %MON dynstat_theta_sd             =   8.6807632964745E-01
(PID.TID 0000.0001) %MON dynstat_theta_del2           =   6.5788091252508E-06
(PID.TID 0000.0001) %MON dynstat_salt_max             =   3.4700000000000E+01
(PID.TID 0000.0001) %MON dynstat_salt_min             =   3.4000000000000E+01
(PID.TID 0000.0001) %MON dynstat_salt_mean            =   3.4498875290776E+01
(PID.TID 0000.0001) %MON dynstat_salt_sd              =   2.7617303554177E-01
(PID.TID 0000.0001) %MON dynstat_salt_del2            =   2.6080965544912E-06
(PID.TID 0000.0001) %MON advcfl_uvel_max              =   6.5934286444261E-03
(PID.TID 0000.0001) %MON advcfl_vvel_max              =   4.0488160548438E-03
(PID.TID 0000.0001) %MON advcfl_wvel_max              =   1.1327418113344E-02
(PID.TID 0000.0001) %MON advcfl_W_hf_max              =   1.1327418113344E-02
(PID.TID 0000.0001) %MON pe_b_mean                    =  -8.2965538735937E-01
(PID.TID 0000.0001) %MON ke_max                       =   1.9078329400770E-03
(PID.TID 0000.0001) %MON ke_mean                      =   2.3535453621161E-06
(PID.TID 0000.0001) %MON ke_vol                       =   4.2724648264664E+12
(PID.TID 0000.0001) // =======================================================
(PID.TID 0000.0001) // End MONITOR dynamic field statistics
(PID.TID 0000.0001) // =======================================================
(PID.TID 0000.0001) // =======================================================
(PID.TID 0000.0001) // Begin OBCS MONITOR field statistics
(PID.TID 0000.0001) // =======================================================
(PID.TID 0000.0001) %MON obc_N_vVel_max               =   1.4905285716147E-05
(PID.TID 0000.0001) %MON obc_N_vVel_min               =   1.4905285716147E-05
(PID.TID 0000.0001) %MON obc_N_vVel_mean              =   1.4905285716147E-05
(PID.TID 0000.0001) %MON obc_N_vVel_sd                =  -2.4039936552322E-23
(PID.TID 0000.0001) %MON obc_N_vVel_Int               =   9.8374885726571E+02
(PID.TID 0000.0001) // =======================================================
(PID.TID 0000.0001) // End OBCS MONITOR field statistics
(PID.TID 0000.0001) // =======================================================
 cg2d: Sum(rhs),rhsMax =   4.50809700317036E+00  2.99969039574007E+02
(PID.TID 0000.0001)      cg2d_init_res =   1.18868878492993E-05
(PID.TID 0000.0001)      cg2d_iters(min,last) =      -1      85
(PID.TID 0000.0001)      cg2d_last_res =   8.79968606543312E-12
(PID.TID 0000.0001) // =======================================================
(PID.TID 0000.0001) // Begin MONITOR dynamic field statistics
(PID.TID 0000.0001) // =======================================================
(PID.TID 0000.0001) %MON time_tsnumber                =                  1509
(PID.TID 0000.0001) %MON time_secondsf                =   1.5090000000000E+05
(PID.TID 0000.0001) %MON dynstat_eta_max              =   5.8035677092091E+00
(PID.TID 0000.0001) %MON dynstat_eta_min              =  -1.4195035683936E+01
(PID.TID 0000.0001) %MON dynstat_eta_mean             =  -2.5042398673101E+00
(PID.TID 0000.0001) %MON dynstat_eta_sd               =   4.9501964801575E+00
(PID.TID 0000.0001) %MON dynstat_eta_del2             =   2.0717150841364E-01
(PID.TID 0000.0001) %MON dynstat_uvel_max             =   1.4871564651861E-02
(PID.TID 0000.0001) %MON dynstat_uvel_min             =  -6.6054491541081E-02
(PID.TID 0000.0001) %MON dynstat_uvel_mean            =  -1.0446980610778E-07
(PID.TID 0000.0001) %MON dynstat_uvel_sd              =   1.9442901662981E-03
(PID.TID 0000.0001) %MON dynstat_uvel_del2            =   3.0192790403533E-06
(PID.TID 0000.0001) %MON dynstat_vvel_max             =   4.0534220049047E-02
(PID.TID 0000.0001) %MON dynstat_vvel_min             =  -2.3343393633956E-02
(PID.TID 0000.0001) %MON dynstat_vvel_mean            =   1.5210188421234E-05
(PID.TID 0000.0001) %MON dynstat_vvel_sd              =   1.0104521159535E-03
(PID.TID 0000.0001) %MON dynstat_vvel_del2            =   2.0964201092765E-06
(PID.TID 0000.0001) %MON dynstat_wvel_max             =   2.2684913356551E-03
(PID.TID 0000.0001) %MON dynstat_wvel_min             =  -2.2207740854964E-03
(PID.TID 0000.0001) %MON dynstat_wvel_mean            =   7.3590821169407E-09
(PID.TID 0000.0001) %MON dynstat_wvel_sd              =   3.7400015484839E-05
(PID.TID 0000.0001) %MON dynstat_wvel_del2            =   1.4740607545930E-07
(PID.TID 0000.0001) %MON dynstat_theta_max            =   1.2000000000000E+00
(PID.TID 0000.0001) %MON dynstat_theta_min            =  -1.0000000000000E+00
(PID.TID 0000.0001) %MON dynstat_theta_mean           =   5.6815132343275E-01
(PID.TID 0000.0001) %MON dynstat_theta_sd             =   8.6807537647101E-01
(PID.TID 0000.0001) %MON dynstat_theta_del2           =   6.5907481175317E-06
(PID.TID 0000.0001) %MON dynstat_salt_max             =   3.4700000000000E+01
(PID.TID 0000.0001) %MON dynstat_salt_min             =   3.4000000000000E+01
(PID.TID 0000.0001) %MON dynstat_salt_mean            =   3.4498874544259E+01
(PID.TID 0000.0001) %MON dynstat_salt_sd              =   2.7617267301563E-01
(PID.TID 0000.0001) %MON dynstat_salt_del2            =   2.6128411751861E-06
(PID.TID 0000.0001) %MON advcfl_uvel_max              =   6.6054491541081E-03
(PID.TID 0000.0001) %MON advcfl_vvel_max              =   4.0534220049048E-03
(PID.TID 0000.0001) %MON advcfl_wvel_max              =   1.1342456678276E-02
(PID.TID 0000.0001) %MON advcfl_W_hf_max              =   1.1342456678276E-02
(PID.TID 0000.0001) %MON pe_b_mean                    =  -8.2965483248742E-01
(PID.TID 0000.0001) %MON ke_max                       =   1.9161826065098E-03
(PID.TID 0000.0001) %MON ke_mean                      =   2.3632626685453E-06
(PID.TID 0000.0001) %MON ke_vol                       =   4.2724648207406E+12
(PID.TID 0000.0001) // =======================================================
(PID.TID 0000.0001) // End MONITOR dynamic field statistics
(PID.TID 0000.0001) // =======================================================
(PID.TID 0000.0001) // =======================================================
(PID.TID 0000.0001) // Begin OBCS MONITOR field statistics
(PID.TID 0000.0001) // =======================================================
(PID.TID 0000.0001) %MON obc_N_vVel_max               =   1.4902875640720E-05
(PID.TID 0000.0001) %MON obc_N_vVel_min               =   1.4902875640720E-05
(PID.TID 0000.0001) %MON obc_N_vVel_mean              =   1.4902875640720E-05
(PID.TID 0000.0001) %MON obc_N_vVel_sd                =  -7.8840652133960E-24
(PID.TID 0000.0001) %MON obc_N_vVel_Int               =   9.8358979228755E+02
(PID.TID 0000.0001) // =======================================================
(PID.TID 0000.0001) // End OBCS MONITOR field statistics
(PID.TID 0000.0001) // =======================================================
 cg2d: Sum(rhs),rhsMax =   4.50809746527476E+00  2.99969117435241E+02
(PID.TID 0000.0001)      cg2d_init_res =   1.19046804523970E-05
(PID.TID 0000.0001)      cg2d_iters(min,last) =      -1      85
(PID.TID 0000.0001)      cg2d_last_res =   8.81133413970082E-12
(PID.TID 0000.0001) // =======================================================
(PID.TID 0000.0001) // Begin MONITOR dynamic field statistics
(PID.TID 0000.0001) // =======================================================
(PID.TID 0000.0001) %MON time_tsnumber                =                  1510
(PID.TID 0000.0001) %MON time_secondsf                =   1.5100000000000E+05
(PID.TID 0000.0001) %MON dynstat_eta_max              =   5.8036056376965E+00
(PID.TID 0000.0001) %MON dynstat_eta_min              =  -1.4195065544517E+01
(PID.TID 0000.0001) %MON dynstat_eta_mean             =  -2.5042407740195E+00
(PID.TID 0000.0001) %MON dynstat_eta_sd               =   4.9501974409414E+00
(PID.TID 0000.0001) %MON dynstat_eta_del2             =   2.0717156902474E-01
(PID.TID 0000.0001) %MON dynstat_uvel_max             =   1.4903415040152E-02
(PID.TID 0000.0001) %MON dynstat_uvel_min             =  -6.6174709661604E-02
(PID.TID 0000.0001) %MON dynstat_uvel_mean            =  -1.0450695804531E-07
(PID.TID 0000.0001) %MON dynstat_uvel_sd              =   1.9483849606677E-03
(PID.TID 0000.0001) %MON dynstat_uvel_del2            =   3.0265540002384E-06
(PID.TID 0000.0001) %MON dynstat_vvel_max             =   4.0580234022490E-02
(PID.TID 0000.0001) %MON dynstat_vvel_min             =  -2.3396592687229E-02
(PID.TID 0000.0001) %MON dynstat_vvel_mean            =   1.5209538577594E-05
(PID.TID 0000.0001) %MON dynstat_vvel_sd              =   1.0123726154163E-03
(PID.TID 0000.0001) %MON dynstat_vvel_del2            =   2.1004407472533E-06
(PID.TID 0000.0001) %MON dynstat_wvel_max             =   2.2714963835388E-03
(PID.TID 0000.0001) %MON dynstat_wvel_min             =  -2.2240116653728E-03
(PID.TID 0000.0001) %MON dynstat_wvel_mean            =   7.3684028455167E-09
(PID.TID 0000.0001) %MON dynstat_wvel_sd              =   3.7469855302728E-05
(PID.TID 0000.0001) %MON dynstat_wvel_del2            =   1.4762457134572E-07
(PID.TID 0000.0001) %MON dynstat_theta_max            =   1.2000000000000E+00
(PID.TID 0000.0001) %MON dynstat_theta_min            =  -1.0000000000000E+00
(PID.TID 0000.0001) %MON dynstat_theta_mean           =   5.6814945562440E-01
(PID.TID 0000.0001) %MON dynstat_theta_sd             =   8.6807442194564E-01
(PID.TID 0000.0001) %MON dynstat_theta_del2           =   6.6026957391331E-06
(PID.TID 0000.0001) %MON dynstat_salt_max             =   3.4700000000000E+01
(PID.TID 0000.0001) %MON dynstat_salt_min             =   3.4000000000000E+01
(PID.TID 0000.0001) %MON dynstat_salt_mean            =   3.4498873796473E+01
(PID.TID 0000.0001) %MON dynstat_salt_sd              =   2.7617231000192E-01
(PID.TID 0000.0001) %MON dynstat_salt_del2            =   2.6175902332752E-06
(PID.TID 0000.0001) %MON advcfl_uvel_max              =   6.6174709661604E-03
(PID.TID 0000.0001) %MON advcfl_vvel_max              =   4.0580234022490E-03
(PID.TID 0000.0001) %MON advcfl_wvel_max              =   1.1357481917694E-02
(PID.TID 0000.0001) %MON advcfl_W_hf_max              =   1.1357481917694E-02
(PID.TID 0000.0001) %MON pe_b_mean                    =  -8.2965426829053E-01
(PID.TID 0000.0001) %MON ke_max                       =   1.9245589363723E-03
(PID.TID 0000.0001) %MON ke_mean                      =   2.3730168639644E-06
(PID.TID 0000.0001) %MON ke_vol                       =   4.2724648151882E+12
(PID.TID 0000.0001) // =======================================================
(PID.TID 0000.0001) // End MONITOR dynamic field statistics
(PID.TID 0000.0001) // =======================================================
(PID.TID 0000.0001) // =======================================================
(PID.TID 0000.0001) // Begin OBCS MONITOR field statistics
(PID.TID 0000.0001) // =======================================================
(PID.TID 0000.0001) %MON obc_N_vVel_max               =   1.4901516750672E-05
(PID.TID 0000.0001) %MON obc_N_vVel_min               =   1.4901516750672E-05
(PID.TID 0000.0001) %MON obc_N_vVel_mean              =   1.4901516750672E-05
(PID.TID 0000.0001) %MON obc_N_vVel_sd                =   4.6403173728228E-12
(PID.TID 0000.0001) %MON obc_N_vVel_Int               =   9.8350010554435E+02
(PID.TID 0000.0001) // =======================================================
(PID.TID 0000.0001) // End OBCS MONITOR field statistics
(PID.TID 0000.0001) // =======================================================
 cg2d: Sum(rhs),rhsMax =   4.50809787793302E+00  2.99969195367070E+02
(PID.TID 0000.0001)      cg2d_init_res =   1.19228291422277E-05
(PID.TID 0000.0001)      cg2d_iters(min,last) =      -1      85
(PID.TID 0000.0001)      cg2d_last_res =   8.82316222354346E-12
(PID.TID 0000.0001) // =======================================================
(PID.TID 0000.0001) // Begin MONITOR dynamic field statistics
(PID.TID 0000.0001) // =======================================================
(PID.TID 0000.0001) %MON time_tsnumber                =                  1511
(PID.TID 0000.0001) %MON time_secondsf                =   1.5110000000000E+05
(PID.TID 0000.0001) %MON dynstat_eta_max              =   5.8036436772884E+00
(PID.TID 0000.0001) %MON dynstat_eta_min              =  -1.4195095406156E+01
(PID.TID 0000.0001) %MON dynstat_eta_mean             =  -2.5042416538510E+00
(PID.TID 0000.0001) %MON dynstat_eta_sd               =   4.9501983948714E+00
(PID.TID 0000.0001) %MON dynstat_eta_del2             =   2.0717162972322E-01
(PID.TID 0000.0001) %MON dynstat_uvel_max             =   1.4935312412407E-02
(PID.TID 0000.0001) %MON dynstat_uvel_min             =  -6.6294939748333E-02
(PID.TID 0000.0001) %MON dynstat_uvel_mean            =  -1.0454489257474E-07
(PID.TID 0000.0001) %MON dynstat_uvel_sd              =   1.9524860792629E-03
(PID.TID 0000.0001) %MON dynstat_uvel_del2            =   3.0338454214970E-06
(PID.TID 0000.0001) %MON dynstat_vvel_max             =   4.0626202273069E-02
(PID.TID 0000.0001) %MON dynstat_vvel_min             =  -2.3449868860707E-02
(PID.TID 0000.0001) %MON dynstat_vvel_mean            =   1.5210146647912E-05
(PID.TID 0000.0001) %MON dynstat_vvel_sd              =   1.0142977353361E-03
(PID.TID 0000.0001) %MON dynstat_vvel_del2            =   2.1044715545907E-06
(PID.TID 0000.0001) %MON dynstat_wvel_max             =   2.2744987485125E-03
(PID.TID 0000.0001) %MON dynstat_wvel_min             =  -2.2272477920708E-03
(PID.TID 0000.0001) %MON dynstat_wvel_mean            =   7.3794085999414E-09
(PID.TID 0000.0001) %MON dynstat_wvel_sd              =   3.7544319027490E-05
(PID.TID 0000.0001) %MON dynstat_wvel_del2            =   1.4785443997402E-07
(PID.TID 0000.0001) %MON dynstat_theta_max            =   1.2000000000000E+00
(PID.TID 0000.0001) %MON dynstat_theta_min            =  -1.0000000000000E+00
(PID.TID 0000.0001) %MON dynstat_theta_mean           =   5.6814758464185E-01
(PID.TID 0000.0001) %MON dynstat_theta_sd             =   8.6807346606749E-01
(PID.TID 0000.0001) %MON dynstat_theta_del2           =   6.6146518846068E-06
(PID.TID 0000.0001) %MON dynstat_salt_max             =   3.4700000000000E+01
(PID.TID 0000.0001) %MON dynstat_salt_min             =   3.4000000000000E+01
(PID.TID 0000.0001) %MON dynstat_salt_mean            =   3.4498873047417E+01
(PID.TID 0000.0001) %MON dynstat_salt_sd              =   2.7617194649987E-01
(PID.TID 0000.0001) %MON dynstat_salt_del2            =   2.6223436650192E-06
(PID.TID 0000.0001) %MON advcfl_uvel_max              =   6.6294939748333E-03
(PID.TID 0000.0001) %MON advcfl_vvel_max              =   4.0626202273069E-03
(PID.TID 0000.0001) %MON advcfl_wvel_max              =   1.1372493742563E-02
(PID.TID 0000.0001) %MON advcfl_W_hf_max              =   1.1372493742563E-02
(PID.TID 0000.0001) %MON pe_b_mean                    =  -8.2965369507608E-01
(PID.TID 0000.0001) %MON ke_max                       =   1.9329619357394E-03
(PID.TID 0000.0001) %MON ke_mean                      =   2.3828079909580E-06
(PID.TID 0000.0001) %MON ke_vol                       =   4.2724648098023E+12
(PID.TID 0000.0001) // =======================================================
(PID.TID 0000.0001) // End MONITOR dynamic field statistics
(PID.TID 0000.0001) // =======================================================
(PID.TID 0000.0001) // =======================================================
(PID.TID 0000.0001) // Begin OBCS MONITOR field statistics
(PID.TID 0000.0001) // =======================================================
(PID.TID 0000.0001) %MON obc_N_vVel_max               =   1.4901238333804E-05
(PID.TID 0000.0001) %MON obc_N_vVel_min               =   1.4901238333803E-05
(PID.TID 0000.0001) %MON obc_N_vVel_mean              =   1.4901238333803E-05
(PID.TID 0000.0001) %MON obc_N_vVel_sd                =   2.1146974220003E-12
(PID.TID 0000.0001) %MON obc_N_vVel_Int               =   9.8348173003103E+02
(PID.TID 0000.0001) // =======================================================
(PID.TID 0000.0001) // End OBCS MONITOR field statistics
(PID.TID 0000.0001) // =======================================================
 cg2d: Sum(rhs),rhsMax =   4.50809824302899E+00  2.99969273384978E+02
(PID.TID 0000.0001)      cg2d_init_res =   1.19412711088306E-05
(PID.TID 0000.0001)      cg2d_iters(min,last) =      -1      85
(PID.TID 0000.0001)      cg2d_last_res =   8.83507650388829E-12
(PID.TID 0000.0001) // =======================================================
(PID.TID 0000.0001) // Begin MONITOR dynamic field statistics
(PID.TID 0000.0001) // =======================================================
(PID.TID 0000.0001) %MON time_tsnumber                =                  1512
(PID.TID 0000.0001) %MON time_secondsf                =   1.5120000000000E+05
(PID.TID 0000.0001) %MON dynstat_eta_max              =   5.8036818257017E+00
(PID.TID 0000.0001) %MON dynstat_eta_min              =  -1.4195125269931E+01
(PID.TID 0000.0001) %MON dynstat_eta_mean             =  -2.5042425079806E+00
(PID.TID 0000.0001) %MON dynstat_eta_sd               =   4.9501993423181E+00
(PID.TID 0000.0001) %MON dynstat_eta_del2             =   2.0717169050909E-01
(PID.TID 0000.0001) %MON dynstat_uvel_max             =   1.4967256796972E-02
(PID.TID 0000.0001) %MON dynstat_uvel_min             =  -6.6415180747462E-02
(PID.TID 0000.0001) %MON dynstat_uvel_mean            =  -1.0458224411570E-07
(PID.TID 0000.0001) %MON dynstat_uvel_sd              =   1.9565935183351E-03
(PID.TID 0000.0001) %MON dynstat_uvel_del2            =   3.0411533245063E-06
(PID.TID 0000.0001) %MON dynstat_vvel_max             =   4.0672124599596E-02
(PID.TID 0000.0001) %MON dynstat_vvel_min             =  -2.3503221916581E-02
(PID.TID 0000.0001) %MON dynstat_vvel_mean            =   1.5212000575544E-05
(PID.TID 0000.0001) %MON dynstat_vvel_sd              =   1.0162273751331E-03
(PID.TID 0000.0001) %MON dynstat_vvel_del2            =   2.1085123380148E-06
(PID.TID 0000.0001) %MON dynstat_wvel_max             =   2.2774984128723E-03
(PID.TID 0000.0001) %MON dynstat_wvel_min             =  -2.2304824108549E-03
(PID.TID 0000.0001) %MON dynstat_wvel_mean            =   7.3918793997694E-09
(PID.TID 0000.0001) %MON dynstat_wvel_sd              =   3.7623118690361E-05
(PID.TID 0000.0001) %MON dynstat_wvel_del2            =   1.4809574979350E-07
(PID.TID 0000.0001) %MON dynstat_theta_max            =   1.2000000000000E+00
(PID.TID 0000.0001) %MON dynstat_theta_min            =  -1.0000000000000E+00
(PID.TID 0000.0001) %MON dynstat_theta_mean           =   5.6814571047930E-01
(PID.TID 0000.0001) %MON dynstat_theta_sd             =   8.6807250883194E-01
(PID.TID 0000.0001) %MON dynstat_theta_del2           =   6.6266167022987E-06
(PID.TID 0000.0001) %MON dynstat_salt_max             =   3.4700000000000E+01
(PID.TID 0000.0001) %MON dynstat_salt_min             =   3.4000000000000E+01
(PID.TID 0000.0001) %MON dynstat_salt_mean            =   3.4498872297087E+01
(PID.TID 0000.0001) %MON dynstat_salt_sd              =   2.7617158250766E-01
(PID.TID 0000.0001) %MON dynstat_salt_del2            =   2.6271014805440E-06
(PID.TID 0000.0001) %MON advcfl_uvel_max              =   6.6415180747462E-03
(PID.TID 0000.0001) %MON advcfl_vvel_max              =   4.0672124599596E-03
(PID.TID 0000.0001) %MON advcfl_wvel_max              =   1.1387492064361E-02
(PID.TID 0000.0001) %MON advcfl_W_hf_max              =   1.1387492064361E-02
(PID.TID 0000.0001) %MON pe_b_mean                    =  -8.2965311314646E-01
(PID.TID 0000.0001) %MON ke_max                       =   1.9413916101943E-03
(PID.TID 0000.0001) %MON ke_mean                      =   2.3926360429026E-06
(PID.TID 0000.0001) %MON ke_vol                       =   4.2724648045761E+12
(PID.TID 0000.0001) // =======================================================
(PID.TID 0000.0001) // End MONITOR dynamic field statistics
(PID.TID 0000.0001) // =======================================================
(PID.TID 0000.0001) // =======================================================
(PID.TID 0000.0001) // Begin OBCS MONITOR field statistics
(PID.TID 0000.0001) // =======================================================
(PID.TID 0000.0001) %MON obc_N_vVel_max               =   1.4902045943519E-05
(PID.TID 0000.0001) %MON obc_N_vVel_min               =   1.4902045943518E-05
(PID.TID 0000.0001) %MON obc_N_vVel_mean              =   1.4902045943518E-05
(PID.TID 0000.0001) %MON obc_N_vVel_sd                =   2.7094700471509E-12
(PID.TID 0000.0001) %MON obc_N_vVel_Int               =   9.8353503227221E+02
(PID.TID 0000.0001) // =======================================================
(PID.TID 0000.0001) // End OBCS MONITOR field statistics
(PID.TID 0000.0001) // =======================================================
 cg2d: Sum(rhs),rhsMax =   4.50809856240650E+00  2.99969351504662E+02
(PID.TID 0000.0001)      cg2d_init_res =   1.19599527293257E-05
(PID.TID 0000.0001)      cg2d_iters(min,last) =      -1      85
(PID.TID 0000.0001)      cg2d_last_res =   8.84696837477045E-12
(PID.TID 0000.0001) // =======================================================
(PID.TID 0000.0001) // Begin MONITOR dynamic field statistics
(PID.TID 0000.0001) // =======================================================
(PID.TID 0000.0001) %MON time_tsnumber                =                  1513
(PID.TID 0000.0001) %MON time_secondsf                =   1.5130000000000E+05
(PID.TID 0000.0001) %MON dynstat_eta_max              =   5.8037200807486E+00
(PID.TID 0000.0001) %MON dynstat_eta_min              =  -1.4195155136864E+01
(PID.TID 0000.0001) %MON dynstat_eta_mean             =  -2.5042433375633E+00
(PID.TID 0000.0001) %MON dynstat_eta_sd               =   4.9502002836244E+00
(PID.TID 0000.0001) %MON dynstat_eta_del2             =   2.0717175138242E-01
(PID.TID 0000.0001) %MON dynstat_uvel_max             =   1.4999248224154E-02
(PID.TID 0000.0001) %MON dynstat_uvel_min             =  -6.6535431609240E-02
(PID.TID 0000.0001) %MON dynstat_uvel_mean            =  -1.0461766420306E-07
(PID.TID 0000.0001) %MON dynstat_uvel_sd              =   1.9607072740415E-03
(PID.TID 0000.0001) %MON dynstat_uvel_del2            =   3.0484777292569E-06
(PID.TID 0000.0001) %MON dynstat_vvel_max             =   4.0718000795404E-02
(PID.TID 0000.0001) %MON dynstat_vvel_min             =  -2.3556651619138E-02
(PID.TID 0000.0001) %MON dynstat_vvel_mean            =   1.5215061371394E-05
(PID.TID 0000.0001) %MON dynstat_vvel_sd              =   1.0181613901705E-03
(PID.TID 0000.0001) %MON dynstat_vvel_del2            =   2.1125627631298E-06
(PID.TID 0000.0001) %MON dynstat_wvel_max             =   2.2804953589962E-03
(PID.TID 0000.0001) %MON dynstat_wvel_min             =  -2.2337154656073E-03
(PID.TID 0000.0001) %MON dynstat_wvel_mean            =   7.4055653361199E-09
(PID.TID 0000.0001) %MON dynstat_wvel_sd              =   3.7705808860140E-05
(PID.TID 0000.0001) %MON dynstat_wvel_del2            =   1.4834804600708E-07
(PID.TID 0000.0001) %MON dynstat_theta_max            =   1.2000000000000E+00
(PID.TID 0000.0001) %MON dynstat_theta_min            =  -1.0000000000000E+00
(PID.TID 0000.0001) %MON dynstat_theta_mean           =   5.6814383313081E-01
(PID.TID 0000.0001) %MON dynstat_theta_sd             =   8.6807155023367E-01
(PID.TID 0000.0001) %MON dynstat_theta_del2           =   6.6385911850242E-06
(PID.TID 0000.0001) %MON dynstat_salt_max             =   3.4700000000000E+01
(PID.TID 0000.0001) %MON dynstat_salt_min             =   3.4000000000000E+01
(PID.TID 0000.0001) %MON dynstat_salt_mean            =   3.4498871545482E+01
(PID.TID 0000.0001) %MON dynstat_salt_sd              =   2.7617121802408E-01
(PID.TID 0000.0001) %MON dynstat_salt_del2            =   2.6318637729653E-06
(PID.TID 0000.0001) %MON advcfl_uvel_max              =   6.6535431609240E-03
(PID.TID 0000.0001) %MON advcfl_vvel_max              =   4.0718000795404E-03
(PID.TID 0000.0001) %MON advcfl_wvel_max              =   1.1402476794981E-02
(PID.TID 0000.0001) %MON advcfl_W_hf_max              =   1.1402476794981E-02
(PID.TID 0000.0001) %MON pe_b_mean                    =  -8.2965252279228E-01
(PID.TID 0000.0001) %MON ke_max                       =   1.9498479648417E-03
(PID.TID 0000.0001) %MON ke_mean                      =   2.4025009670802E-06
(PID.TID 0000.0001) %MON ke_vol                       =   4.2724647995026E+12
(PID.TID 0000.0001) // =======================================================
(PID.TID 0000.0001) // End MONITOR dynamic field statistics
(PID.TID 0000.0001) // =======================================================
(PID.TID 0000.0001) // =======================================================
(PID.TID 0000.0001) // Begin OBCS MONITOR field statistics
(PID.TID 0000.0001) // =======================================================
(PID.TID 0000.0001) %MON obc_N_vVel_max               =   1.4903921496203E-05
(PID.TID 0000.0001) %MON obc_N_vVel_min               =   1.4903921496202E-05
(PID.TID 0000.0001) %MON obc_N_vVel_mean              =   1.4903921496202E-05
(PID.TID 0000.0001) %MON obc_N_vVel_sd                =   3.7808352199854E-12
(PID.TID 0000.0001) %MON obc_N_vVel_Int               =   9.8365881874936E+02
(PID.TID 0000.0001) // =======================================================
(PID.TID 0000.0001) // End OBCS MONITOR field statistics
(PID.TID 0000.0001) // =======================================================
 cg2d: Sum(rhs),rhsMax =   4.50809883800385E+00  2.99969429730126E+02
(PID.TID 0000.0001)      cg2d_init_res =   1.19788127209686E-05
(PID.TID 0000.0001)      cg2d_iters(min,last) =      -1      85
(PID.TID 0000.0001)      cg2d_last_res =   8.85871846014227E-12
(PID.TID 0000.0001) // =======================================================
(PID.TID 0000.0001) // Begin MONITOR dynamic field statistics
(PID.TID 0000.0001) // =======================================================
(PID.TID 0000.0001) %MON time_tsnumber                =                  1514
(PID.TID 0000.0001) %MON time_secondsf                =   1.5140000000000E+05
(PID.TID 0000.0001) %MON dynstat_eta_max              =   5.8037584403822E+00
(PID.TID 0000.0001) %MON dynstat_eta_min              =  -1.4195185007893E+01
(PID.TID 0000.0001) %MON dynstat_eta_mean             =  -2.5042441437094E+00
(PID.TID 0000.0001) %MON dynstat_eta_sd               =   4.9502012190969E+00
(PID.TID 0000.0001) %MON dynstat_eta_del2             =   2.0717181234315E-01
(PID.TID 0000.0001) %MON dynstat_uvel_max             =   1.5031286725705E-02
(PID.TID 0000.0001) %MON dynstat_uvel_min             =  -6.6655691288179E-02
(PID.TID 0000.0001) %MON dynstat_uvel_mean            =  -1.0464985547294E-07
(PID.TID 0000.0001) %MON dynstat_uvel_sd              =   1.9648273424457E-03
(PID.TID 0000.0001) %MON dynstat_uvel_del2            =   3.0558186551528E-06
(PID.TID 0000.0001) %MON dynstat_vvel_max             =   4.0763830648586E-02
(PID.TID 0000.0001) %MON dynstat_vvel_min             =  -2.3610157734623E-02
(PID.TID 0000.0001) %MON dynstat_vvel_mean            =   1.5219264218727E-05
(PID.TID 0000.0001) %MON dynstat_vvel_sd              =   1.0200995969052E-03
(PID.TID 0000.0001) %MON dynstat_vvel_del2            =   2.1166223673306E-06
(PID.TID 0000.0001) %MON dynstat_wvel_max             =   2.2834895693508E-03
(PID.TID 0000.0001) %MON dynstat_wvel_min             =  -2.2369468989968E-03
(PID.TID 0000.0001) %MON dynstat_wvel_mean            =   7.4201927938785E-09
(PID.TID 0000.0001) %MON dynstat_wvel_sd              =   3.7791803035585E-05
(PID.TID 0000.0001) %MON dynstat_wvel_del2            =   1.4861037208629E-07
(PID.TID 0000.0001) %MON dynstat_theta_max            =   1.2000000000000E+00
(PID.TID 0000.0001) %MON dynstat_theta_min            =  -1.0000000000000E+00
(PID.TID 0000.0001) %MON dynstat_theta_mean           =   5.6814195259046E-01
(PID.TID 0000.0001) %MON dynstat_theta_sd             =   8.6807059026863E-01
(PID.TID 0000.0001) %MON dynstat_theta_del2           =   6.6505753150967E-06
(PID.TID 0000.0001) %MON dynstat_salt_max             =   3.4700000000000E+01
(PID.TID 0000.0001) %MON dynstat_salt_min             =   3.4000000000000E+01
(PID.TID 0000.0001) %MON dynstat_salt_mean            =   3.4498870792599E+01
(PID.TID 0000.0001) %MON dynstat_salt_sd              =   2.7617085304767E-01
(PID.TID 0000.0001) %MON dynstat_salt_del2            =   2.6366306940300E-06
(PID.TID 0000.0001) %MON advcfl_uvel_max              =   6.6655691288179E-03
(PID.TID 0000.0001) %MON advcfl_vvel_max              =   4.0763830648586E-03
(PID.TID 0000.0001) %MON advcfl_wvel_max              =   1.1417447846754E-02
(PID.TID 0000.0001) %MON advcfl_W_hf_max              =   1.1417447846754E-02
(PID.TID 0000.0001) %MON pe_b_mean                    =  -8.2965192428610E-01
(PID.TID 0000.0001) %MON ke_max                       =   1.9583310043237E-03
(PID.TID 0000.0001) %MON ke_mean                      =   2.4124026695165E-06
(PID.TID 0000.0001) %MON ke_vol                       =   4.2724647945749E+12
(PID.TID 0000.0001) // =======================================================
(PID.TID 0000.0001) // End MONITOR dynamic field statistics
(PID.TID 0000.0001) // =======================================================
(PID.TID 0000.0001) // =======================================================
(PID.TID 0000.0001) // Begin OBCS MONITOR field statistics
(PID.TID 0000.0001) // =======================================================
(PID.TID 0000.0001) %MON obc_N_vVel_max               =   1.4906823888544E-05
(PID.TID 0000.0001) %MON obc_N_vVel_min               =   1.4906823888544E-05
(PID.TID 0000.0001) %MON obc_N_vVel_mean              =   1.4906823888544E-05
(PID.TID 0000.0001) %MON obc_N_vVel_sd                =   4.3021118309354E-12
(PID.TID 0000.0001) %MON obc_N_vVel_Int               =   9.8385037664388E+02
(PID.TID 0000.0001) // =======================================================
(PID.TID 0000.0001) // End OBCS MONITOR field statistics
(PID.TID 0000.0001) // =======================================================
 cg2d: Sum(rhs),rhsMax =   4.50809907166424E+00  2.99969508063370E+02
(PID.TID 0000.0001)      cg2d_init_res =   1.19977987326783E-05
(PID.TID 0000.0001)      cg2d_iters(min,last) =      -1      85
(PID.TID 0000.0001)      cg2d_last_res =   8.87022364358237E-12
(PID.TID 0000.0001) // =======================================================
(PID.TID 0000.0001) // Begin MONITOR dynamic field statistics
(PID.TID 0000.0001) // =======================================================
(PID.TID 0000.0001) %MON time_tsnumber                =                  1515
(PID.TID 0000.0001) %MON time_secondsf                =   1.5150000000000E+05
(PID.TID 0000.0001) %MON dynstat_eta_max              =   5.8037969027429E+00
(PID.TID 0000.0001) %MON dynstat_eta_min              =  -1.4195214883847E+01
(PID.TID 0000.0001) %MON dynstat_eta_mean             =  -2.5042449274594E+00
(PID.TID 0000.0001) %MON dynstat_eta_sd               =   4.9502021490042E+00
(PID.TID 0000.0001) %MON dynstat_eta_del2             =   2.0717187339144E-01
(PID.TID 0000.0001) %MON dynstat_uvel_max             =   1.5063372335074E-02
(PID.TID 0000.0001) %MON dynstat_uvel_min             =  -6.6775958743512E-02
(PID.TID 0000.0001) %MON dynstat_uvel_mean            =  -1.0467760077165E-07
(PID.TID 0000.0001) %MON dynstat_uvel_sd              =   1.9689537194918E-03
(PID.TID 0000.0001) %MON dynstat_uvel_del2            =   3.0631761215033E-06
(PID.TID 0000.0001) %MON dynstat_vvel_max             =   4.0809613942526E-02
(PID.TID 0000.0001) %MON dynstat_vvel_min             =  -2.3663740030596E-02
(PID.TID 0000.0001) %MON dynstat_vvel_mean            =   1.5224520127545E-05
(PID.TID 0000.0001) %MON dynstat_vvel_sd              =   1.0220417794409E-03
(PID.TID 0000.0001) %MON dynstat_vvel_del2            =   2.1206905802391E-06
(PID.TID 0000.0001) %MON dynstat_wvel_max             =   2.2864810265035E-03
(PID.TID 0000.0001) %MON dynstat_wvel_min             =  -2.2401766523147E-03
(PID.TID 0000.0001) %MON dynstat_wvel_mean            =   7.4354699006297E-09
(PID.TID 0000.0001) %MON dynstat_wvel_sd              =   3.7880396273987E-05
(PID.TID 0000.0001) %MON dynstat_wvel_del2            =   1.4888132016233E-07
(PID.TID 0000.0001) %MON dynstat_theta_max            =   1.2000000000000E+00
(PID.TID 0000.0001) %MON dynstat_theta_min            =  -1.0000000000000E+00
(PID.TID 0000.0001) %MON dynstat_theta_mean           =   5.6814006885229E-01
(PID.TID 0000.0001) %MON dynstat_theta_sd             =   8.6806962893380E-01
(PID.TID 0000.0001) %MON dynstat_theta_del2           =   6.6625698257642E-06
(PID.TID 0000.0001) %MON dynstat_salt_max             =   3.4700000000000E+01
(PID.TID 0000.0001) %MON dynstat_salt_min             =   3.4000000000000E+01
(PID.TID 0000.0001) %MON dynstat_salt_mean            =   3.4498870038436E+01
(PID.TID 0000.0001) %MON dynstat_salt_sd              =   2.7617048757795E-01
(PID.TID 0000.0001) %MON dynstat_salt_del2            =   2.6414024185705E-06
(PID.TID 0000.0001) %MON advcfl_uvel_max              =   6.6775958743512E-03
(PID.TID 0000.0001) %MON advcfl_vvel_max              =   4.0809613942526E-03
(PID.TID 0000.0001) %MON advcfl_wvel_max              =   1.1432405132517E-02
(PID.TID 0000.0001) %MON advcfl_W_hf_max              =   1.1432405132517E-02
(PID.TID 0000.0001) %MON pe_b_mean                    =  -8.2965131787642E-01
(PID.TID 0000.0001) %MON ke_max                       =   1.9668407328327E-03
(PID.TID 0000.0001) %MON ke_mean                      =   2.4223410212664E-06
(PID.TID 0000.0001) %MON ke_vol                       =   4.2724647897864E+12
(PID.TID 0000.0001) // =======================================================
(PID.TID 0000.0001) // End MONITOR dynamic field statistics
(PID.TID 0000.0001) // =======================================================
(PID.TID 0000.0001) // =======================================================
(PID.TID 0000.0001) // Begin OBCS MONITOR field statistics
(PID.TID 0000.0001) // =======================================================
(PID.TID 0000.0001) %MON obc_N_vVel_max               =   1.4910690122034E-05
(PID.TID 0000.0001) %MON obc_N_vVel_min               =   1.4910690122034E-05
(PID.TID 0000.0001) %MON obc_N_vVel_mean              =   1.4910690122034E-05
(PID.TID 0000.0001) %MON obc_N_vVel_sd                =   4.3409916297689E-12
(PID.TID 0000.0001) %MON obc_N_vVel_Int               =   9.8410554805423E+02
(PID.TID 0000.0001) // =======================================================
(PID.TID 0000.0001) // End OBCS MONITOR field statistics
(PID.TID 0000.0001) // =======================================================
 cg2d: Sum(rhs),rhsMax =   4.50809926509178E+00  2.99969586504573E+02
(PID.TID 0000.0001)      cg2d_init_res =   1.20168252060126E-05
(PID.TID 0000.0001)      cg2d_iters(min,last) =      -1      85
(PID.TID 0000.0001)      cg2d_last_res =   8.88137852831257E-12
(PID.TID 0000.0001) // =======================================================
(PID.TID 0000.0001) // Begin MONITOR dynamic field statistics
(PID.TID 0000.0001) // =======================================================
(PID.TID 0000.0001) %MON time_tsnumber                =                  1516
(PID.TID 0000.0001) %MON time_secondsf                =   1.5160000000000E+05
(PID.TID 0000.0001) %MON dynstat_eta_max              =   5.8038354662025E+00
(PID.TID 0000.0001) %MON dynstat_eta_min              =  -1.4195244765437E+01
(PID.TID 0000.0001) %MON dynstat_eta_mean             =  -2.5042456897614E+00
(PID.TID 0000.0001) %MON dynstat_eta_sd               =   4.9502030735653E+00
(PID.TID 0000.0001) %MON dynstat_eta_del2             =   2.0717193452725E-01
(PID.TID 0000.0001) %MON dynstat_uvel_max             =   1.5095505087221E-02
(PID.TID 0000.0001) %MON dynstat_uvel_min             =  -6.6896232938734E-02
(PID.TID 0000.0001) %MON dynstat_uvel_mean            =  -1.0469979015278E-07
(PID.TID 0000.0001) %MON dynstat_uvel_sd              =   1.9730864010294E-03
(PID.TID 0000.0001) %MON dynstat_uvel_del2            =   3.0705501457349E-06
(PID.TID 0000.0001) %MON dynstat_vvel_max             =   4.0855350456208E-02
(PID.TID 0000.0001) %MON dynstat_vvel_min             =  -2.3717398275441E-02
(PID.TID 0000.0001) %MON dynstat_vvel_mean            =   1.5230718111846E-05
(PID.TID 0000.0001) %MON dynstat_vvel_sd              =   1.0239876973458E-03
(PID.TID 0000.0001) %MON dynstat_vvel_del2            =   2.1247667488227E-06
(PID.TID 0000.0001) %MON dynstat_wvel_max             =   2.2894697130757E-03
(PID.TID 0000.0001) %MON dynstat_wvel_min             =  -2.2434046656379E-03
(PID.TID 0000.0001) %MON dynstat_wvel_mean            =   7.4510942540484E-09
(PID.TID 0000.0001) %MON dynstat_wvel_sd              =   3.7970793045104E-05
(PID.TID 0000.0001) %MON dynstat_wvel_del2            =   1.4915910782017E-07
(PID.TID 0000.0001) %MON dynstat_theta_max            =   1.2000000000000E+00
(PID.TID 0000.0001) %MON dynstat_theta_min            =  -1.0000000000000E+00
(PID.TID 0000.0001) %MON dynstat_theta_mean           =   5.6813818191035E-01
(PID.TID 0000.0001) %MON dynstat_theta_sd             =   8.6806866622929E-01
(PID.TID 0000.0001) %MON dynstat_theta_del2           =   6.6745756536267E-06
(PID.TID 0000.0001) %MON dynstat_salt_max             =   3.4700000000000E+01
(PID.TID 0000.0001) %MON dynstat_salt_min             =   3.4000000000000E+01
(PID.TID 0000.0001) %MON dynstat_salt_mean            =   3.4498869282992E+01
(PID.TID 0000.0001) %MON dynstat_salt_sd              =   2.7617012161472E-01
(PID.TID 0000.0001) %MON dynstat_salt_del2            =   2.6461791835025E-06
(PID.TID 0000.0001) %MON advcfl_uvel_max              =   6.6896232938734E-03
(PID.TID 0000.0001) %MON advcfl_vvel_max              =   4.0855350456208E-03
(PID.TID 0000.0001) %MON advcfl_wvel_max              =   1.1447348565378E-02
(PID.TID 0000.0001) %MON advcfl_W_hf_max              =   1.1447348565378E-02
(PID.TID 0000.0001) %MON pe_b_mean                    =  -8.2965070378228E-01
(PID.TID 0000.0001) %MON ke_max                       =   1.9753771541041E-03
(PID.TID 0000.0001) %MON ke_mean                      =   2.4323158661720E-06
(PID.TID 0000.0001) %MON ke_vol                       =   4.2724647851309E+12
(PID.TID 0000.0001) // =======================================================
(PID.TID 0000.0001) // End MONITOR dynamic field statistics
(PID.TID 0000.0001) // =======================================================
(PID.TID 0000.0001) // =======================================================
(PID.TID 0000.0001) // Begin OBCS MONITOR field statistics
(PID.TID 0000.0001) // =======================================================
(PID.TID 0000.0001) %MON obc_N_vVel_max               =   1.4915436875979E-05
(PID.TID 0000.0001) %MON obc_N_vVel_min               =   1.4915436875979E-05
(PID.TID 0000.0001) %MON obc_N_vVel_mean              =   1.4915436875979E-05
(PID.TID 0000.0001) %MON obc_N_vVel_sd                =   1.5337192920961E-12
(PID.TID 0000.0001) %MON obc_N_vVel_Int               =   9.8441883381459E+02
(PID.TID 0000.0001) // =======================================================
(PID.TID 0000.0001) // End OBCS MONITOR field statistics
(PID.TID 0000.0001) // =======================================================
 cg2d: Sum(rhs),rhsMax =   4.50809941981364E+00  2.99969665052097E+02
(PID.TID 0000.0001)      cg2d_init_res =   1.20358273230461E-05
(PID.TID 0000.0001)      cg2d_iters(min,last) =      -1      85
(PID.TID 0000.0001)      cg2d_last_res =   8.89210373907363E-12
(PID.TID 0000.0001) // =======================================================
(PID.TID 0000.0001) // Begin MONITOR dynamic field statistics
(PID.TID 0000.0001) // =======================================================
(PID.TID 0000.0001) %MON time_tsnumber                =                  1517
(PID.TID 0000.0001) %MON time_secondsf                =   1.5170000000000E+05
(PID.TID 0000.0001) %MON dynstat_eta_max              =   5.8038741294004E+00
(PID.TID 0000.0001) %MON dynstat_eta_min              =  -1.4195274653233E+01
(PID.TID 0000.0001) %MON dynstat_eta_mean             =  -2.5042464314501E+00
(PID.TID 0000.0001) %MON dynstat_eta_sd               =   4.9502039929466E+00
(PID.TID 0000.0001) %MON dynstat_eta_del2             =   2.0717199575050E-01
(PID.TID 0000.0001) %MON dynstat_uvel_max             =   1.5127685018335E-02
(PID.TID 0000.0001) %MON dynstat_uvel_min             =  -6.7016512843326E-02
(PID.TID 0000.0001) %MON dynstat_uvel_mean            =  -1.0471544167766E-07
(PID.TID 0000.0001) %MON dynstat_uvel_sd              =   1.9772253827910E-03
(PID.TID 0000.0001) %MON dynstat_uvel_del2            =   3.0779407444380E-06
(PID.TID 0000.0001) %MON dynstat_vvel_max             =   4.0901039964996E-02
(PID.TID 0000.0001) %MON dynstat_vvel_min             =  -2.3771132238089E-02
(PID.TID 0000.0001) %MON dynstat_vvel_mean            =   1.5237727820727E-05
(PID.TID 0000.0001) %MON dynstat_vvel_sd              =   1.0259370943123E-03
(PID.TID 0000.0001) %MON dynstat_vvel_del2            =   2.1288501671292E-06
(PID.TID 0000.0001) %MON dynstat_wvel_max             =   2.2924556118119E-03
(PID.TID 0000.0001) %MON dynstat_wvel_min             =  -2.2466308777680E-03
(PID.TID 0000.0001) %MON dynstat_wvel_mean            =   7.4667584847675E-09
(PID.TID 0000.0001) %MON dynstat_wvel_sd              =   3.8062138899468E-05
(PID.TID 0000.0001) %MON dynstat_wvel_del2            =   1.4944167461151E-07
(PID.TID 0000.0001) %MON dynstat_theta_max            =   1.2000000000000E+00
(PID.TID 0000.0001) %MON dynstat_theta_min            =  -1.0000000000000E+00
(PID.TID 0000.0001) %MON dynstat_theta_mean           =   5.6813629175854E-01
(PID.TID 0000.0001) %MON dynstat_theta_sd             =   8.6806770215613E-01
(PID.TID 0000.0001) %MON dynstat_theta_del2           =   6.6865938726254E-06
(PID.TID 0000.0001) %MON dynstat_salt_max             =   3.4700000000000E+01
(PID.TID 0000.0001) %MON dynstat_salt_min             =   3.4000000000000E+01
(PID.TID 0000.0001) %MON dynstat_salt_mean            =   3.4498868526263E+01
(PID.TID 0000.0001) %MON dynstat_salt_sd              =   2.7616975515858E-01
(PID.TID 0000.0001) %MON dynstat_salt_del2            =   2.6509612660275E-06
(PID.TID 0000.0001) %MON advcfl_uvel_max              =   6.7016512843326E-03
(PID.TID 0000.0001) %MON advcfl_vvel_max              =   4.0901039964997E-03
(PID.TID 0000.0001) %MON advcfl_wvel_max              =   1.1462278059060E-02
(PID.TID 0000.0001) %MON advcfl_W_hf_max              =   1.1462278059060E-02
(PID.TID 0000.0001) %MON pe_b_mean                    =  -8.2965008218836E-01
(PID.TID 0000.0001) %MON ke_max                       =   1.9839402714890E-03
(PID.TID 0000.0001) %MON ke_mean                      =   2.4423270294930E-06
(PID.TID 0000.0001) %MON ke_vol                       =   4.2724647806028E+12
(PID.TID 0000.0001) // =======================================================
(PID.TID 0000.0001) // End MONITOR dynamic field statistics
(PID.TID 0000.0001) // =======================================================
(PID.TID 0000.0001) // =======================================================
(PID.TID 0000.0001) // Begin OBCS MONITOR field statistics
(PID.TID 0000.0001) // =======================================================
(PID.TID 0000.0001) %MON obc_N_vVel_max               =   1.4920962547268E-05
(PID.TID 0000.0001) %MON obc_N_vVel_min               =   1.4920962547267E-05
(PID.TID 0000.0001) %MON obc_N_vVel_mean              =   1.4920962547268E-05
(PID.TID 0000.0001) %MON obc_N_vVel_sd                =  -1.9852334701273E-23
(PID.TID 0000.0001) %MON obc_N_vVel_Int               =   9.8478352811967E+02
(PID.TID 0000.0001) // =======================================================
(PID.TID 0000.0001) // End OBCS MONITOR field statistics
(PID.TID 0000.0001) // =======================================================
 cg2d: Sum(rhs),rhsMax =   4.50809953714768E+00  2.99969743702548E+02
(PID.TID 0000.0001)      cg2d_init_res =   1.20547378504124E-05
(PID.TID 0000.0001)      cg2d_iters(min,last) =      -1      85
(PID.TID 0000.0001)      cg2d_last_res =   8.90233313562643E-12
(PID.TID 0000.0001) // =======================================================
(PID.TID 0000.0001) // Begin MONITOR dynamic field statistics
(PID.TID 0000.0001) // =======================================================
(PID.TID 0000.0001) %MON time_tsnumber                =                  1518
(PID.TID 0000.0001) %MON time_secondsf                =   1.5180000000000E+05
(PID.TID 0000.0001) %MON dynstat_eta_max              =   5.8039128912752E+00
(PID.TID 0000.0001) %MON dynstat_eta_min              =  -1.4195304547654E+01
(PID.TID 0000.0001) %MON dynstat_eta_mean             =  -2.5042471532292E+00
(PID.TID 0000.0001) %MON dynstat_eta_sd               =   4.9502049072593E+00
(PID.TID 0000.0001) %MON dynstat_eta_del2             =   2.0717205706112E-01
(PID.TID 0000.0001) %MON dynstat_uvel_max             =   1.5159912165664E-02
(PID.TID 0000.0001) %MON dynstat_uvel_min             =  -6.7136797432535E-02
(PID.TID 0000.0001) %MON dynstat_uvel_mean            =  -1.0472372061113E-07
(PID.TID 0000.0001) %MON dynstat_uvel_sd              =   1.9813706603733E-03
(PID.TID 0000.0001) %MON dynstat_uvel_del2            =   3.0853479338935E-06
(PID.TID 0000.0001) %MON dynstat_vvel_max             =   4.0946682241079E-02
(PID.TID 0000.0001) %MON dynstat_vvel_min             =  -2.3824941687089E-02
(PID.TID 0000.0001) %MON dynstat_vvel_mean            =   1.5245402566322E-05
(PID.TID 0000.0001) %MON dynstat_vvel_sd              =   1.0278897073783E-03
(PID.TID 0000.0001) %MON dynstat_vvel_del2            =   2.1329401085599E-06
(PID.TID 0000.0001) %MON dynstat_wvel_max             =   2.2954387055101E-03
(PID.TID 0000.0001) %MON dynstat_wvel_min             =  -2.2498552263243E-03
(PID.TID 0000.0001) %MON dynstat_wvel_mean            =   7.4821573908527E-09
(PID.TID 0000.0001) %MON dynstat_wvel_sd              =   3.8153554461651E-05
(PID.TID 0000.0001) %MON dynstat_wvel_del2            =   1.4972679243517E-07
(PID.TID 0000.0001) %MON dynstat_theta_max            =   1.2000000000000E+00
(PID.TID 0000.0001) %MON dynstat_theta_min            =  -1.0000000000000E+00
(PID.TID 0000.0001) %MON dynstat_theta_mean           =   5.6813439839073E-01
(PID.TID 0000.0001) %MON dynstat_theta_sd             =   8.6806673671779E-01
(PID.TID 0000.0001) %MON dynstat_theta_del2           =   6.6986255062276E-06
(PID.TID 0000.0001) %MON dynstat_salt_max             =   3.4700000000000E+01
(PID.TID 0000.0001) %MON dynstat_salt_min             =   3.4000000000000E+01
(PID.TID 0000.0001) %MON dynstat_salt_mean            =   3.4498867768247E+01
(PID.TID 0000.0001) %MON dynstat_salt_sd              =   2.7616938821077E-01
(PID.TID 0000.0001) %MON dynstat_salt_del2            =   2.6557489087081E-06
(PID.TID 0000.0001) %MON advcfl_uvel_max              =   6.7136797432535E-03
(PID.TID 0000.0001) %MON advcfl_vvel_max              =   4.0946682241079E-03
(PID.TID 0000.0001) %MON advcfl_wvel_max              =   1.1477193527550E-02
(PID.TID 0000.0001) %MON advcfl_W_hf_max              =   1.1477193527550E-02
(PID.TID 0000.0001) %MON pe_b_mean                    =  -8.2964945324112E-01
(PID.TID 0000.0001) %MON ke_max                       =   1.9925300879331E-03
(PID.TID 0000.0001) %MON ke_mean                      =   2.4523743272240E-06
(PID.TID 0000.0001) %MON ke_vol                       =   4.2724647761972E+12
(PID.TID 0000.0001) // =======================================================
(PID.TID 0000.0001) // End MONITOR dynamic field statistics
(PID.TID 0000.0001) // =======================================================
(PID.TID 0000.0001) // =======================================================
(PID.TID 0000.0001) // Begin OBCS MONITOR field statistics
(PID.TID 0000.0001) // =======================================================
(PID.TID 0000.0001) %MON obc_N_vVel_max               =   1.4927149620609E-05
(PID.TID 0000.0001) %MON obc_N_vVel_min               =   1.4927149620609E-05
(PID.TID 0000.0001) %MON obc_N_vVel_mean              =   1.4927149620609E-05
(PID.TID 0000.0001) %MON obc_N_vVel_sd                =  -1.2821299494572E-23
(PID.TID 0000.0001) %MON obc_N_vVel_Int               =   9.8519187496020E+02
(PID.TID 0000.0001) // =======================================================
(PID.TID 0000.0001) // End OBCS MONITOR field statistics
(PID.TID 0000.0001) // =======================================================
 cg2d: Sum(rhs),rhsMax =   4.50809961817720E+00  2.99969822450888E+02
(PID.TID 0000.0001)      cg2d_init_res =   1.20734901693823E-05
(PID.TID 0000.0001)      cg2d_iters(min,last) =      -1      85
(PID.TID 0000.0001)      cg2d_last_res =   8.91199591368839E-12
(PID.TID 0000.0001) // =======================================================
(PID.TID 0000.0001) // Begin MONITOR dynamic field statistics
(PID.TID 0000.0001) // =======================================================
(PID.TID 0000.0001) %MON time_tsnumber                =                  1519
(PID.TID 0000.0001) %MON time_secondsf                =   1.5190000000000E+05
(PID.TID 0000.0001) %MON dynstat_eta_max              =   5.8039517510797E+00
(PID.TID 0000.0001) %MON dynstat_eta_min              =  -1.4195334448959E+01
(PID.TID 0000.0001) %MON dynstat_eta_mean             =  -2.5042478556584E+00
(PID.TID 0000.0001) %MON dynstat_eta_sd               =   4.9502058165584E+00
(PID.TID 0000.0001) %MON dynstat_eta_del2             =   2.0717211845890E-01
(PID.TID 0000.0001) %MON dynstat_uvel_max             =   1.5192186567209E-02
(PID.TID 0000.0001) %MON dynstat_uvel_min             =  -6.7257085688200E-02
(PID.TID 0000.0001) %MON dynstat_uvel_mean            =  -1.0472395829300E-07
(PID.TID 0000.0001) %MON dynstat_uvel_sd              =   1.9855222292401E-03
(PID.TID 0000.0001) %MON dynstat_uvel_del2            =   3.0927717298236E-06
(PID.TID 0000.0001) %MON dynstat_vvel_max             =   4.0992277054210E-02
(PID.TID 0000.0001) %MON dynstat_vvel_min             =  -2.3878826389705E-02
(PID.TID 0000.0001) %MON dynstat_vvel_mean            =   1.5253582689625E-05
(PID.TID 0000.0001) %MON dynstat_vvel_sd              =   1.0298452763352E-03
(PID.TID 0000.0001) %MON dynstat_vvel_del2            =   2.1370358585264E-06
(PID.TID 0000.0001) %MON dynstat_wvel_max             =   2.2984189770686E-03
(PID.TID 0000.0001) %MON dynstat_wvel_min             =  -2.2530776476932E-03
(PID.TID 0000.0001) %MON dynstat_wvel_mean            =   7.4969948166963E-09
(PID.TID 0000.0001) %MON dynstat_wvel_sd              =   3.8244170123982E-05
(PID.TID 0000.0001) %MON dynstat_wvel_del2            =   1.5001218201756E-07
(PID.TID 0000.0001) %MON dynstat_theta_max            =   1.2000000000000E+00
(PID.TID 0000.0001) %MON dynstat_theta_min            =  -1.0000000000000E+00
(PID.TID 0000.0001) %MON dynstat_theta_mean           =   5.6813250180091E-01
(PID.TID 0000.0001) %MON dynstat_theta_sd             =   8.6806576991867E-01
(PID.TID 0000.0001) %MON dynstat_theta_del2           =   6.7106718885846E-06
(PID.TID 0000.0001) %MON dynstat_salt_max             =   3.4700000000000E+01
(PID.TID 0000.0001) %MON dynstat_salt_min             =   3.4000000000000E+01
(PID.TID 0000.0001) %MON dynstat_salt_mean            =   3.4498867008943E+01
(PID.TID 0000.0001) %MON dynstat_salt_sd              =   2.7616902077278E-01
(PID.TID 0000.0001) %MON dynstat_salt_del2            =   2.6605424702900E-06
(PID.TID 0000.0001) %MON advcfl_uvel_max              =   6.7257085688200E-03
(PID.TID 0000.0001) %MON advcfl_vvel_max              =   4.0992277054210E-03
(PID.TID 0000.0001) %MON advcfl_wvel_max              =   1.1492094885343E-02
(PID.TID 0000.0001) %MON advcfl_W_hf_max              =   1.1492094885343E-02
(PID.TID 0000.0001) %MON pe_b_mean                    =  -8.2964881704622E-01
(PID.TID 0000.0001) %MON ke_max                       =   2.0011466060140E-03
(PID.TID 0000.0001) %MON ke_mean                      =   2.4624575757606E-06
(PID.TID 0000.0001) %MON ke_vol                       =   4.2724647719098E+12
(PID.TID 0000.0001) // =======================================================
(PID.TID 0000.0001) // End MONITOR dynamic field statistics
(PID.TID 0000.0001) // =======================================================
(PID.TID 0000.0001) // =======================================================
(PID.TID 0000.0001) // Begin OBCS MONITOR field statistics
(PID.TID 0000.0001) // =======================================================
(PID.TID 0000.0001) %MON obc_N_vVel_max               =   1.4933867388973E-05
(PID.TID 0000.0001) %MON obc_N_vVel_min               =   1.4933867388973E-05
(PID.TID 0000.0001) %MON obc_N_vVel_mean              =   1.4933867388973E-05
(PID.TID 0000.0001) %MON obc_N_vVel_sd                =  -1.1528829787458E-23
(PID.TID 0000.0001) %MON obc_N_vVel_Int               =   9.8563524767221E+02
(PID.TID 0000.0001) // =======================================================
(PID.TID 0000.0001) // End OBCS MONITOR field statistics
(PID.TID 0000.0001) // =======================================================
 cg2d: Sum(rhs),rhsMax =   4.50809966372732E+00  2.99969901290555E+02
(PID.TID 0000.0001)      cg2d_init_res =   1.20920232070525E-05
(PID.TID 0000.0001)      cg2d_iters(min,last) =      -1      85
(PID.TID 0000.0001)      cg2d_last_res =   8.92103088013849E-12
(PID.TID 0000.0001) // =======================================================
(PID.TID 0000.0001) // Begin MONITOR dynamic field statistics
(PID.TID 0000.0001) // =======================================================
(PID.TID 0000.0001) %MON time_tsnumber                =                  1520
(PID.TID 0000.0001) %MON time_secondsf                =   1.5200000000000E+05
(PID.TID 0000.0001) %MON dynstat_eta_max              =   5.8039907084067E+00
(PID.TID 0000.0001) %MON dynstat_eta_min              =  -1.4195364357243E+01
(PID.TID 0000.0001) %MON dynstat_eta_mean             =  -2.5042485391412E+00
(PID.TID 0000.0001) %MON dynstat_eta_sd               =   4.9502067208388E+00
(PID.TID 0000.0001) %MON dynstat_eta_del2             =   2.0717217994371E-01
(PID.TID 0000.0001) %MON dynstat_uvel_max             =   1.5224508261355E-02
(PID.TID 0000.0001) %MON dynstat_uvel_min             =  -6.7377376599121E-02
(PID.TID 0000.0001) %MON dynstat_uvel_mean            =  -1.0471566623003E-07
(PID.TID 0000.0001) %MON dynstat_uvel_sd              =   1.9896800847141E-03
(PID.TID 0000.0001) %MON dynstat_uvel_del2            =   3.1002121480231E-06
(PID.TID 0000.0001) %MON dynstat_vvel_max             =   4.1037824172610E-02
(PID.TID 0000.0001) %MON dynstat_vvel_min             =  -2.3932786111354E-02
(PID.TID 0000.0001) %MON dynstat_vvel_mean            =   1.5262099178715E-05
(PID.TID 0000.0001) %MON dynstat_vvel_sd              =   1.0318035529788E-03
(PID.TID 0000.0001) %MON dynstat_vvel_del2            =   2.1411367467412E-06
(PID.TID 0000.0001) %MON dynstat_wvel_max             =   2.3013964094584E-03
(PID.TID 0000.0001) %MON dynstat_wvel_min             =  -2.2562980771672E-03
(PID.TID 0000.0001) %MON dynstat_wvel_mean            =   7.5109896460421E-09
(PID.TID 0000.0001) %MON dynstat_wvel_sd              =   3.8333159797279E-05
(PID.TID 0000.0001) %MON dynstat_wvel_del2            =   1.5029562762237E-07
(PID.TID 0000.0001) %MON dynstat_theta_max            =   1.2000000000000E+00
(PID.TID 0000.0001) %MON dynstat_theta_min            =  -1.0000000000000E+00
(PID.TID 0000.0001) %MON dynstat_theta_mean           =   5.6813060198314E-01
(PID.TID 0000.0001) %MON dynstat_theta_sd             =   8.6806480176292E-01
(PID.TID 0000.0001) %MON dynstat_theta_del2           =   6.7227341653179E-06
(PID.TID 0000.0001) %MON dynstat_salt_max             =   3.4700000000000E+01
(PID.TID 0000.0001) %MON dynstat_salt_min             =   3.4000000000000E+01
(PID.TID 0000.0001) %MON dynstat_salt_mean            =   3.4498866248348E+01
(PID.TID 0000.0001) %MON dynstat_salt_sd              =   2.7616865284616E-01
(PID.TID 0000.0001) %MON dynstat_salt_del2            =   2.6653424129455E-06
(PID.TID 0000.0001) %MON advcfl_uvel_max              =   6.7377376599121E-03
(PID.TID 0000.0001) %MON advcfl_vvel_max              =   4.1037824172610E-03
(PID.TID 0000.0001) %MON advcfl_wvel_max              =   1.1506982047292E-02
(PID.TID 0000.0001) %MON advcfl_W_hf_max              =   1.1506982047292E-02
(PID.TID 0000.0001) %MON pe_b_mean                    =  -8.2964817366618E-01
(PID.TID 0000.0001) %MON ke_max                       =   2.0097898279565E-03
(PID.TID 0000.0001) %MON ke_mean                      =   2.4725766014982E-06
(PID.TID 0000.0001) %MON ke_vol                       =   4.2724647677374E+12
(PID.TID 0000.0001) // =======================================================
(PID.TID 0000.0001) // End MONITOR dynamic field statistics
(PID.TID 0000.0001) // =======================================================
(PID.TID 0000.0001) // =======================================================
(PID.TID 0000.0001) // Begin OBCS MONITOR field statistics
(PID.TID 0000.0001) // =======================================================
(PID.TID 0000.0001) %MON obc_N_vVel_max               =   1.4940974970940E-05
(PID.TID 0000.0001) %MON obc_N_vVel_min               =   1.4940974970940E-05
(PID.TID 0000.0001) %MON obc_N_vVel_mean              =   1.4940974970940E-05
(PID.TID 0000.0001) %MON obc_N_vVel_sd                =  -8.8404927966605E-24
(PID.TID 0000.0001) %MON obc_N_vVel_Int               =   9.8610434808207E+02
(PID.TID 0000.0001) // =======================================================
(PID.TID 0000.0001) // End OBCS MONITOR field statistics
(PID.TID 0000.0001) // =======================================================
 cg2d: Sum(rhs),rhsMax =   4.50809967434720E+00  2.99969980213678E+02
(PID.TID 0000.0001)      cg2d_init_res =   1.21102984890164E-05
(PID.TID 0000.0001)      cg2d_iters(min,last) =      -1      85
(PID.TID 0000.0001)      cg2d_last_res =   8.92938972710580E-12
(PID.TID 0000.0001) // =======================================================
(PID.TID 0000.0001) // Begin MONITOR dynamic field statistics
(PID.TID 0000.0001) // =======================================================
(PID.TID 0000.0001) %MON time_tsnumber                =                  1521
(PID.TID 0000.0001) %MON time_secondsf                =   1.5210000000000E+05
(PID.TID 0000.0001) %MON dynstat_eta_max              =   5.8040297631950E+00
(PID.TID 0000.0001) %MON dynstat_eta_min              =  -1.4195394272434E+01
(PID.TID 0000.0001) %MON dynstat_eta_mean             =  -2.5042492039171E+00
(PID.TID 0000.0001) %MON dynstat_eta_sd               =   4.9502076200447E+00
(PID.TID 0000.0001) %MON dynstat_eta_del2             =   2.0717224151564E-01
(PID.TID 0000.0001) %MON dynstat_uvel_max             =   1.5256877286779E-02
(PID.TID 0000.0001) %MON dynstat_uvel_min             =  -6.7497669161463E-02
(PID.TID 0000.0001) %MON dynstat_uvel_mean            =  -1.0469855087652E-07
(PID.TID 0000.0001) %MON dynstat_uvel_sd              =   1.9938442219245E-03
(PID.TID 0000.0001) %MON dynstat_uvel_del2            =   3.1076692046131E-06
(PID.TID 0000.0001) %MON dynstat_vvel_max             =   4.1083323363631E-02
(PID.TID 0000.0001) %MON dynstat_vvel_min             =  -2.3986820614518E-02
(PID.TID 0000.0001) %MON dynstat_vvel_mean            =   1.5270777445507E-05
(PID.TID 0000.0001) %MON dynstat_vvel_sd              =   1.0337643098135E-03
(PID.TID 0000.0001) %MON dynstat_vvel_del2            =   2.1452421767681E-06
(PID.TID 0000.0001) %MON dynstat_wvel_max             =   2.3043709857239E-03
(PID.TID 0000.0001) %MON dynstat_wvel_min             =  -2.2595164488731E-03
(PID.TID 0000.0001) %MON dynstat_wvel_mean            =   7.5238820057579E-09
(PID.TID 0000.0001) %MON dynstat_wvel_sd              =   3.8419772248056E-05
(PID.TID 0000.0001) %MON dynstat_wvel_del2            =   1.5057508316609E-07
(PID.TID 0000.0001) %MON dynstat_theta_max            =   1.2000000000000E+00
(PID.TID 0000.0001) %MON dynstat_theta_min            =  -1.0000000000000E+00
(PID.TID 0000.0001) %MON dynstat_theta_mean           =   5.6812869893151E-01
(PID.TID 0000.0001) %MON dynstat_theta_sd             =   8.6806383225465E-01
(PID.TID 0000.0001) %MON dynstat_theta_del2           =   6.7348134493304E-06
(PID.TID 0000.0001) %MON dynstat_salt_max             =   3.4700000000000E+01
(PID.TID 0000.0001) %MON dynstat_salt_min             =   3.4000000000000E+01
(PID.TID 0000.0001) %MON dynstat_salt_mean            =   3.4498865486461E+01
(PID.TID 0000.0001) %MON dynstat_salt_sd              =   2.7616828443241E-01
(PID.TID 0000.0001) %MON dynstat_salt_del2            =   2.6701489711145E-06
(PID.TID 0000.0001) %MON advcfl_uvel_max              =   6.7497669161463E-03
(PID.TID 0000.0001) %MON advcfl_vvel_max              =   4.1083323363631E-03
(PID.TID 0000.0001) %MON advcfl_wvel_max              =   1.1521854928620E-02
(PID.TID 0000.0001) %MON advcfl_W_hf_max              =   1.1521854928620E-02
(PID.TID 0000.0001) %MON pe_b_mean                    =  -8.2964752311918E-01
(PID.TID 0000.0001) %MON ke_max                       =   2.0184597556615E-03
(PID.TID 0000.0001) %MON ke_mean                      =   2.4827312498901E-06
(PID.TID 0000.0001) %MON ke_vol                       =   4.2724647636775E+12
(PID.TID 0000.0001) // =======================================================
(PID.TID 0000.0001) // End MONITOR dynamic field statistics
(PID.TID 0000.0001) // =======================================================
(PID.TID 0000.0001) // =======================================================
(PID.TID 0000.0001) // Begin OBCS MONITOR field statistics
(PID.TID 0000.0001) // =======================================================
(PID.TID 0000.0001) %MON obc_N_vVel_max               =   1.4948324434872E-05
(PID.TID 0000.0001) %MON obc_N_vVel_min               =   1.4948324434872E-05
(PID.TID 0000.0001) %MON obc_N_vVel_mean              =   1.4948324434872E-05
(PID.TID 0000.0001) %MON obc_N_vVel_sd                =   2.7284841053188E-12
(PID.TID 0000.0001) %MON obc_N_vVel_Int               =   9.8658941270152E+02
(PID.TID 0000.0001) // =======================================================
(PID.TID 0000.0001) // End OBCS MONITOR field statistics
(PID.TID 0000.0001) // =======================================================
 cg2d: Sum(rhs),rhsMax =   4.50809965029937E+00  2.99970059211264E+02
(PID.TID 0000.0001)      cg2d_init_res =   1.21282465245586E-05
(PID.TID 0000.0001)      cg2d_iters(min,last) =      -1      85
(PID.TID 0000.0001)      cg2d_last_res =   8.93706493916122E-12
(PID.TID 0000.0001) // =======================================================
(PID.TID 0000.0001) // Begin MONITOR dynamic field statistics
(PID.TID 0000.0001) // =======================================================
(PID.TID 0000.0001) %MON time_tsnumber                =                  1522
(PID.TID 0000.0001) %MON time_secondsf                =   1.5220000000000E+05
(PID.TID 0000.0001) %MON dynstat_eta_max              =   5.8040689157245E+00
(PID.TID 0000.0001) %MON dynstat_eta_min              =  -1.4195424194294E+01
(PID.TID 0000.0001) %MON dynstat_eta_mean             =  -2.5042498500566E+00
(PID.TID 0000.0001) %MON dynstat_eta_sd               =   4.9502085140587E+00
(PID.TID 0000.0001) %MON dynstat_eta_del2             =   2.0717230317441E-01
(PID.TID 0000.0001) %MON dynstat_uvel_max             =   1.5289293682011E-02
(PID.TID 0000.0001) %MON dynstat_uvel_min             =  -6.7617962379003E-02
(PID.TID 0000.0001) %MON dynstat_uvel_mean            =  -1.0467250669333E-07
(PID.TID 0000.0001) %MON dynstat_uvel_sd              =   1.9980146358474E-03
(PID.TID 0000.0001) %MON dynstat_uvel_del2            =   3.1151429153250E-06
(PID.TID 0000.0001) %MON dynstat_vvel_max             =   4.1128774394700E-02
(PID.TID 0000.0001) %MON dynstat_vvel_min             =  -2.4040929657984E-02
(PID.TID 0000.0001) %MON dynstat_vvel_mean            =   1.5279441219886E-05
(PID.TID 0000.0001) %MON dynstat_vvel_sd              =   1.0357273479024E-03
(PID.TID 0000.0001) %MON dynstat_vvel_del2            =   2.1493516500640E-06
(PID.TID 0000.0001) %MON dynstat_wvel_max             =   2.3073426889911E-03
(PID.TID 0000.0001) %MON dynstat_wvel_min             =  -2.2627326958588E-03
(PID.TID 0000.0001) %MON dynstat_wvel_mean            =   7.5354387882717E-09
(PID.TID 0000.0001) %MON dynstat_wvel_sd              =   3.8503358733442E-05
(PID.TID 0000.0001) %MON dynstat_wvel_del2            =   1.5084876403511E-07
(PID.TID 0000.0001) %MON dynstat_theta_max            =   1.2000000000000E+00
(PID.TID 0000.0001) %MON dynstat_theta_min            =  -1.0000000000000E+00
(PID.TID 0000.0001) %MON dynstat_theta_mean           =   5.6812679264015E-01
(PID.TID 0000.0001) %MON dynstat_theta_sd             =   8.6806286139892E-01
(PID.TID 0000.0001) %MON dynstat_theta_del2           =   6.7469107447548E-06
(PID.TID 0000.0001) %MON dynstat_salt_max             =   3.4700000000000E+01
(PID.TID 0000.0001) %MON dynstat_salt_min             =   3.4000000000000E+01
(PID.TID 0000.0001) %MON dynstat_salt_mean            =   3.4498864723277E+01
(PID.TID 0000.0001) %MON dynstat_salt_sd              =   2.7616791553292E-01
(PID.TID 0000.0001) %MON dynstat_salt_del2            =   2.6749623097516E-06
(PID.TID 0000.0001) %MON advcfl_uvel_max              =   6.7617962379003E-03
(PID.TID 0000.0001) %MON advcfl_vvel_max              =   4.1128774394700E-03
(PID.TID 0000.0001) %MON advcfl_wvel_max              =   1.1536713444956E-02
(PID.TID 0000.0001) %MON advcfl_W_hf_max              =   1.1536713444956E-02
(PID.TID 0000.0001) %MON pe_b_mean                    =  -8.2964686537887E-01
(PID.TID 0000.0001) %MON ke_max                       =   2.0271563907137E-03
(PID.TID 0000.0001) %MON ke_mean                      =   2.4929213939065E-06
(PID.TID 0000.0001) %MON ke_vol                       =   4.2724647597287E+12
(PID.TID 0000.0001) // =======================================================
(PID.TID 0000.0001) // End MONITOR dynamic field statistics
(PID.TID 0000.0001) // =======================================================
(PID.TID 0000.0001) // =======================================================
(PID.TID 0000.0001) // Begin OBCS MONITOR field statistics
(PID.TID 0000.0001) // =======================================================
(PID.TID 0000.0001) %MON obc_N_vVel_max               =   1.4955764194570E-05
(PID.TID 0000.0001) %MON obc_N_vVel_min               =   1.4955764194569E-05
(PID.TID 0000.0001) %MON obc_N_vVel_mean              =   1.4955764194570E-05
(PID.TID 0000.0001) %MON obc_N_vVel_sd                =  -7.1602821774121E-24
(PID.TID 0000.0001) %MON obc_N_vVel_Int               =   9.8708043684161E+02
(PID.TID 0000.0001) // =======================================================
(PID.TID 0000.0001) // End OBCS MONITOR field statistics
(PID.TID 0000.0001) // =======================================================
 cg2d: Sum(rhs),rhsMax =   4.50809959155632E+00  2.99970138273435E+02
(PID.TID 0000.0001)      cg2d_init_res =   1.21458284466801E-05
(PID.TID 0000.0001)      cg2d_iters(min,last) =      -1      85
(PID.TID 0000.0001)      cg2d_last_res =   8.94404374228406E-12
(PID.TID 0000.0001) // =======================================================
(PID.TID 0000.0001) // Begin MONITOR dynamic field statistics
(PID.TID 0000.0001) // =======================================================
(PID.TID 0000.0001) %MON time_tsnumber                =                  1523
(PID.TID 0000.0001) %MON time_secondsf                =   1.5230000000000E+05
(PID.TID 0000.0001) %MON dynstat_eta_max              =   5.8041081666188E+00
(PID.TID 0000.0001) %MON dynstat_eta_min              =  -1.4195454122433E+01
(PID.TID 0000.0001) %MON dynstat_eta_mean             =  -2.5042504774622E+00
(PID.TID 0000.0001) %MON dynstat_eta_sd               =   4.9502094027078E+00
(PID.TID 0000.0001) %MON dynstat_eta_del2             =   2.0717236491963E-01
(PID.TID 0000.0001) %MON dynstat_uvel_max             =   1.5321757485207E-02
(PID.TID 0000.0001) %MON dynstat_uvel_min             =  -6.7738255263585E-02
(PID.TID 0000.0001) %MON dynstat_uvel_mean            =  -1.0463761263382E-07
(PID.TID 0000.0001) %MON dynstat_uvel_sd              =   2.0021913213074E-03
(PID.TID 0000.0001) %MON dynstat_uvel_del2            =   3.1226332952389E-06
(PID.TID 0000.0001) %MON dynstat_vvel_max             =   4.1174177034133E-02
(PID.TID 0000.0001) %MON dynstat_vvel_min             =  -2.4095112995903E-02
(PID.TID 0000.0001) %MON dynstat_vvel_mean            =   1.5287916424566E-05
(PID.TID 0000.0001) %MON dynstat_vvel_sd              =   1.0376925035468E-03
(PID.TID 0000.0001) %MON dynstat_vvel_del2            =   2.1534647847828E-06
(PID.TID 0000.0001) %MON dynstat_wvel_max             =   2.3103115024567E-03
(PID.TID 0000.0001) %MON dynstat_wvel_min             =  -2.2659467501432E-03
(PID.TID 0000.0001) %MON dynstat_wvel_mean            =   7.5454590778109E-09
(PID.TID 0000.0001) %MON dynstat_wvel_sd              =   3.8583395782808E-05
(PID.TID 0000.0001) %MON dynstat_wvel_del2            =   1.5111521875674E-07
(PID.TID 0000.0001) %MON dynstat_theta_max            =   1.2000000000000E+00
(PID.TID 0000.0001) %MON dynstat_theta_min            =  -1.0000000000000E+00
(PID.TID 0000.0001) %MON dynstat_theta_mean           =   5.6812488310329E-01
(PID.TID 0000.0001) %MON dynstat_theta_sd             =   8.6806188920053E-01
(PID.TID 0000.0001) %MON dynstat_theta_del2           =   6.7590269416570E-06
(PID.TID 0000.0001) %MON dynstat_salt_max             =   3.4700000000000E+01
(PID.TID 0000.0001) %MON dynstat_salt_min             =   3.4000000000000E+01
(PID.TID 0000.0001) %MON dynstat_salt_mean            =   3.4498863958797E+01
(PID.TID 0000.0001) %MON dynstat_salt_sd              =   2.7616754614969E-01
(PID.TID 0000.0001) %MON dynstat_salt_del2            =   2.6797826638086E-06
(PID.TID 0000.0001) %MON advcfl_uvel_max              =   6.7738255263585E-03
(PID.TID 0000.0001) %MON advcfl_vvel_max              =   4.1174177034133E-03
(PID.TID 0000.0001) %MON advcfl_wvel_max              =   1.1551557512283E-02
(PID.TID 0000.0001) %MON advcfl_W_hf_max              =   1.1551557512283E-02
(PID.TID 0000.0001) %MON pe_b_mean                    =  -8.2964620037527E-01
(PID.TID 0000.0001) %MON ke_max                       =   2.0358797343930E-03
(PID.TID 0000.0001) %MON ke_mean                      =   2.5031469412990E-06
(PID.TID 0000.0001) %MON ke_vol                       =   4.2724647558907E+12
(PID.TID 0000.0001) // =======================================================
(PID.TID 0000.0001) // End MONITOR dynamic field statistics
(PID.TID 0000.0001) // =======================================================
(PID.TID 0000.0001) // =======================================================
(PID.TID 0000.0001) // Begin OBCS MONITOR field statistics
(PID.TID 0000.0001) // =======================================================
(PID.TID 0000.0001) %MON obc_N_vVel_max               =   1.4963142241123E-05
(PID.TID 0000.0001) %MON obc_N_vVel_min               =   1.4963142241123E-05
(PID.TID 0000.0001) %MON obc_N_vVel_mean              =   1.4963142241123E-05
(PID.TID 0000.0001) %MON obc_N_vVel_sd                =  -1.0391456445197E-23
(PID.TID 0000.0001) %MON obc_N_vVel_Int               =   9.8756738791413E+02
(PID.TID 0000.0001) // =======================================================
(PID.TID 0000.0001) // End OBCS MONITOR field statistics
(PID.TID 0000.0001) // =======================================================
 cg2d: Sum(rhs),rhsMax =   4.50809949780101E+00  2.99970217389706E+02
(PID.TID 0000.0001)      cg2d_init_res =   1.21630287956616E-05
(PID.TID 0000.0001)      cg2d_iters(min,last) =      -1      85
(PID.TID 0000.0001)      cg2d_last_res =   8.95033982397043E-12
(PID.TID 0000.0001) // =======================================================
(PID.TID 0000.0001) // Begin MONITOR dynamic field statistics
(PID.TID 0000.0001) // =======================================================
(PID.TID 0000.0001) %MON time_tsnumber                =                  1524
(PID.TID 0000.0001) %MON time_secondsf                =   1.5240000000000E+05
(PID.TID 0000.0001) %MON dynstat_eta_max              =   5.8041475168242E+00
(PID.TID 0000.0001) %MON dynstat_eta_min              =  -1.4195484056316E+01
(PID.TID 0000.0001) %MON dynstat_eta_mean             =  -2.5042510858700E+00
(PID.TID 0000.0001) %MON dynstat_eta_sd               =   4.9502102857726E+00
(PID.TID 0000.0001) %MON dynstat_eta_del2             =   2.0717242675103E-01
(PID.TID 0000.0001) %MON dynstat_uvel_max             =   1.5354268733873E-02
(PID.TID 0000.0001) %MON dynstat_uvel_min             =  -6.7858546835375E-02
(PID.TID 0000.0001) %MON dynstat_uvel_mean            =  -1.0459413344605E-07
(PID.TID 0000.0001) %MON dynstat_uvel_sd              =   2.0063742729662E-03
(PID.TID 0000.0001) %MON dynstat_uvel_del2            =   3.1301403593371E-06
(PID.TID 0000.0001) %MON dynstat_vvel_max             =   4.1219531051830E-02
(PID.TID 0000.0001) %MON dynstat_vvel_min             =  -2.4149370376971E-02
(PID.TID 0000.0001) %MON dynstat_vvel_mean            =   1.5296034978490E-05
(PID.TID 0000.0001) %MON dynstat_vvel_sd              =   1.0396596535498E-03
(PID.TID 0000.0001) %MON dynstat_vvel_del2            =   2.1575813293458E-06
(PID.TID 0000.0001) %MON dynstat_wvel_max             =   2.3132774093865E-03
(PID.TID 0000.0001) %MON dynstat_wvel_min             =  -2.2691585427433E-03
(PID.TID 0000.0001) %MON dynstat_wvel_mean            =   7.5537772061376E-09
(PID.TID 0000.0001) %MON dynstat_wvel_sd              =   3.8659502367256E-05
(PID.TID 0000.0001) %MON dynstat_wvel_del2            =   1.5137337806607E-07
(PID.TID 0000.0001) %MON dynstat_theta_max            =   1.2000000000000E+00
(PID.TID 0000.0001) %MON dynstat_theta_min            =  -1.0000000000000E+00
(PID.TID 0000.0001) %MON dynstat_theta_mean           =   5.6812297031519E-01
(PID.TID 0000.0001) %MON dynstat_theta_sd             =   8.6806091566387E-01
(PID.TID 0000.0001) %MON dynstat_theta_del2           =   6.7711627793731E-06
(PID.TID 0000.0001) %MON dynstat_salt_max             =   3.4700000000000E+01
(PID.TID 0000.0001) %MON dynstat_salt_min             =   3.4000000000000E+01
(PID.TID 0000.0001) %MON dynstat_salt_mean            =   3.4498863193017E+01
(PID.TID 0000.0001) %MON dynstat_salt_sd              =   2.7616717628407E-01
(PID.TID 0000.0001) %MON dynstat_salt_del2            =   2.6846102316809E-06
(PID.TID 0000.0001) %MON advcfl_uvel_max              =   6.7858546835375E-03
(PID.TID 0000.0001) %MON advcfl_vvel_max              =   4.1219531051830E-03
(PID.TID 0000.0001) %MON advcfl_wvel_max              =   1.1566387046932E-02
(PID.TID 0000.0001) %MON advcfl_W_hf_max              =   1.1566387046932E-02
(PID.TID 0000.0001) %MON pe_b_mean                    =  -8.2964552799641E-01
(PID.TID 0000.0001) %MON ke_max                       =   2.0446297876949E-03
(PID.TID 0000.0001) %MON ke_mean                      =   2.5134078404482E-06
(PID.TID 0000.0001) %MON ke_vol                       =   4.2724647521639E+12
(PID.TID 0000.0001) // =======================================================
(PID.TID 0000.0001) // End MONITOR dynamic field statistics
(PID.TID 0000.0001) // =======================================================
(PID.TID 0000.0001) // =======================================================
(PID.TID 0000.0001) // Begin OBCS MONITOR field statistics
(PID.TID 0000.0001) // =======================================================
(PID.TID 0000.0001) %MON obc_N_vVel_max               =   1.4970309573479E-05
(PID.TID 0000.0001) %MON obc_N_vVel_min               =   1.4970309573478E-05
(PID.TID 0000.0001) %MON obc_N_vVel_mean              =   1.4970309573479E-05
(PID.TID 0000.0001) %MON obc_N_vVel_sd                =  -2.1610093502948E-23
(PID.TID 0000.0001) %MON obc_N_vVel_Int               =   9.8804043184959E+02
(PID.TID 0000.0001) // =======================================================
(PID.TID 0000.0001) // End OBCS MONITOR field statistics
(PID.TID 0000.0001) // =======================================================
 cg2d: Sum(rhs),rhsMax =   4.50809936843755E+00  2.99970296549241E+02
(PID.TID 0000.0001)      cg2d_init_res =   1.21798350303309E-05
(PID.TID 0000.0001)      cg2d_iters(min,last) =      -1      85
(PID.TID 0000.0001)      cg2d_last_res =   8.95596479021325E-12
(PID.TID 0000.0001) // =======================================================
(PID.TID 0000.0001) // Begin MONITOR dynamic field statistics
(PID.TID 0000.0001) // =======================================================
(PID.TID 0000.0001) %MON time_tsnumber                =                  1525
(PID.TID 0000.0001) %MON time_secondsf                =   1.5250000000000E+05
(PID.TID 0000.0001) %MON dynstat_eta_max              =   5.8041869675902E+00
(PID.TID 0000.0001) %MON dynstat_eta_min              =  -1.4195513995264E+01
(PID.TID 0000.0001) %MON dynstat_eta_mean             =  -2.5042516748586E+00
(PID.TID 0000.0001) %MON dynstat_eta_sd               =   4.9502111629910E+00
(PID.TID 0000.0001) %MON dynstat_eta_del2             =   2.0717248866837E-01
(PID.TID 0000.0001) %MON dynstat_uvel_max             =   1.5386827464898E-02
(PID.TID 0000.0001) %MON dynstat_uvel_min             =  -6.7978836123420E-02
(PID.TID 0000.0001) %MON dynstat_uvel_mean            =  -1.0454251818369E-07
(PID.TID 0000.0001) %MON dynstat_uvel_sd              =   2.0105634853254E-03
(PID.TID 0000.0001) %MON dynstat_uvel_del2            =   3.1376641226040E-06
(PID.TID 0000.0001) %MON dynstat_vvel_max             =   4.1264836220190E-02
(PID.TID 0000.0001) %MON dynstat_vvel_min             =  -2.4203701543463E-02
(PID.TID 0000.0001) %MON dynstat_vvel_mean            =   1.5303638432100E-05
(PID.TID 0000.0001) %MON dynstat_vvel_sd              =   1.0416287189275E-03
(PID.TID 0000.0001) %MON dynstat_vvel_del2            =   2.1617011689757E-06
(PID.TID 0000.0001) %MON dynstat_wvel_max             =   2.3162403931061E-03
(PID.TID 0000.0001) %MON dynstat_wvel_min             =  -2.2723680036845E-03
(PID.TID 0000.0001) %MON dynstat_wvel_mean            =   7.5602668244356E-09
(PID.TID 0000.0001) %MON dynstat_wvel_sd              =   3.8731450961150E-05
(PID.TID 0000.0001) %MON dynstat_wvel_del2            =   1.5162258020321E-07
(PID.TID 0000.0001) %MON dynstat_theta_max            =   1.2000000000000E+00
(PID.TID 0000.0001) %MON dynstat_theta_min            =  -1.0000000000000E+00
(PID.TID 0000.0001) %MON dynstat_theta_mean           =   5.6812105427034E-01
(PID.TID 0000.0001) %MON dynstat_theta_sd             =   8.6805994079295E-01
(PID.TID 0000.0001) %MON dynstat_theta_del2           =   6.7833188507609E-06
(PID.TID 0000.0001) %MON dynstat_salt_max             =   3.4700000000000E+01
(PID.TID 0000.0001) %MON dynstat_salt_min             =   3.4000000000000E+01
(PID.TID 0000.0001) %MON dynstat_salt_mean            =   3.4498862425936E+01
(PID.TID 0000.0001) %MON dynstat_salt_sd              =   2.7616680593736E-01
(PID.TID 0000.0001) %MON dynstat_salt_del2            =   2.6894451718716E-06
(PID.TID 0000.0001) %MON advcfl_uvel_max              =   6.7978836123420E-03
(PID.TID 0000.0001) %MON advcfl_vvel_max              =   4.1264836220190E-03
(PID.TID 0000.0001) %MON advcfl_wvel_max              =   1.1581201965530E-02
(PID.TID 0000.0001) %MON advcfl_W_hf_max              =   1.1581201965530E-02
(PID.TID 0000.0001) %MON pe_b_mean                    =  -8.2964484809129E-01
(PID.TID 0000.0001) %MON ke_max                       =   2.0534065513501E-03
(PID.TID 0000.0001) %MON ke_mean                      =   2.5237040846808E-06
(PID.TID 0000.0001) %MON ke_vol                       =   4.2724647485499E+12
(PID.TID 0000.0001) // =======================================================
(PID.TID 0000.0001) // End MONITOR dynamic field statistics
(PID.TID 0000.0001) // =======================================================
(PID.TID 0000.0001) // =======================================================
(PID.TID 0000.0001) // Begin OBCS MONITOR field statistics
(PID.TID 0000.0001) // =======================================================
(PID.TID 0000.0001) %MON obc_N_vVel_max               =   1.4977123417519E-05
(PID.TID 0000.0001) %MON obc_N_vVel_min               =   1.4977123417518E-05
(PID.TID 0000.0001) %MON obc_N_vVel_mean              =   1.4977123417518E-05
(PID.TID 0000.0001) %MON obc_N_vVel_sd                =   5.2073039526471E-12
(PID.TID 0000.0001) %MON obc_N_vVel_Int               =   9.8849014555621E+02
(PID.TID 0000.0001) // =======================================================
(PID.TID 0000.0001) // End OBCS MONITOR field statistics
(PID.TID 0000.0001) // =======================================================
 cg2d: Sum(rhs),rhsMax =   4.50809920260424E+00  2.99970375741138E+02
(PID.TID 0000.0001)      cg2d_init_res =   1.21962455240017E-05
(PID.TID 0000.0001)      cg2d_iters(min,last) =      -1      85
(PID.TID 0000.0001)      cg2d_last_res =   8.96095729922566E-12
(PID.TID 0000.0001) // =======================================================
(PID.TID 0000.0001) // Begin MONITOR dynamic field statistics
(PID.TID 0000.0001) // =======================================================
(PID.TID 0000.0001) %MON time_tsnumber                =                  1526
(PID.TID 0000.0001) %MON time_secondsf                =   1.5260000000000E+05
(PID.TID 0000.0001) %MON dynstat_eta_max              =   5.8042265204433E+00
(PID.TID 0000.0001) %MON dynstat_eta_min              =  -1.4195543938487E+01
(PID.TID 0000.0001) %MON dynstat_eta_mean             =  -2.5042522438584E+00
(PID.TID 0000.0001) %MON dynstat_eta_sd               =   4.9502120340628E+00
(PID.TID 0000.0001) %MON dynstat_eta_del2             =   2.0717255067139E-01
(PID.TID 0000.0001) %MON dynstat_uvel_max             =   1.5419433714051E-02
(PID.TID 0000.0001) %MON dynstat_uvel_min             =  -6.8099122165772E-02
(PID.TID 0000.0001) %MON dynstat_uvel_mean            =  -1.0448339240352E-07
(PID.TID 0000.0001) %MON dynstat_uvel_sd              =   2.0147589527284E-03
(PID.TID 0000.0001) %MON dynstat_uvel_del2            =   3.1452046000399E-06
(PID.TID 0000.0001) %MON dynstat_vvel_max             =   4.1310092314785E-02
(PID.TID 0000.0001) %MON dynstat_vvel_min             =  -2.4258106230739E-02
(PID.TID 0000.0001) %MON dynstat_vvel_mean            =   1.5310581355967E-05
(PID.TID 0000.0001) %MON dynstat_vvel_sd              =   1.0435996669225E-03
(PID.TID 0000.0001) %MON dynstat_vvel_del2            =   2.1658243254887E-06
(PID.TID 0000.0001) %MON dynstat_wvel_max             =   2.3192004370173E-03
(PID.TID 0000.0001) %MON dynstat_wvel_min             =  -2.2755750620446E-03
(PID.TID 0000.0001) %MON dynstat_wvel_mean            =   7.5648432982729E-09
(PID.TID 0000.0001) %MON dynstat_wvel_sd              =   3.8799172279577E-05
(PID.TID 0000.0001) %MON dynstat_wvel_del2            =   1.5186257255916E-07
(PID.TID 0000.0001) %MON dynstat_theta_max            =   1.2000000000000E+00
(PID.TID 0000.0001) %MON dynstat_theta_min            =  -1.0000000000000E+00
(PID.TID 0000.0001) %MON dynstat_theta_mean           =   5.6811913496333E-01
(PID.TID 0000.0001) %MON dynstat_theta_sd             =   8.6805896459024E-01
(PID.TID 0000.0001) %MON dynstat_theta_del2           =   6.7954956103757E-06
(PID.TID 0000.0001) %MON dynstat_salt_max             =   3.4700000000000E+01
(PID.TID 0000.0001) %MON dynstat_salt_min             =   3.4000000000000E+01
(PID.TID 0000.0001) %MON dynstat_salt_mean            =   3.4498861657551E+01
(PID.TID 0000.0001) %MON dynstat_salt_sd              =   2.7616643511071E-01
(PID.TID 0000.0001) %MON dynstat_salt_del2            =   2.6942876284024E-06
(PID.TID 0000.0001) %MON advcfl_uvel_max              =   6.8099122165772E-03
(PID.TID 0000.0001) %MON advcfl_vvel_max              =   4.1310092314785E-03
(PID.TID 0000.0001) %MON advcfl_wvel_max              =   1.1596002185086E-02
(PID.TID 0000.0001) %MON advcfl_W_hf_max              =   1.1596002185086E-02
(PID.TID 0000.0001) %MON pe_b_mean                    =  -8.2964416047323E-01
(PID.TID 0000.0001) %MON ke_max                       =   2.0622100258289E-03
(PID.TID 0000.0001) %MON ke_mean                      =   2.5340357148563E-06
(PID.TID 0000.0001) %MON ke_vol                       =   4.2724647450513E+12
(PID.TID 0000.0001) // =======================================================
(PID.TID 0000.0001) // End MONITOR dynamic field statistics
(PID.TID 0000.0001) // =======================================================
(PID.TID 0000.0001) // =======================================================
(PID.TID 0000.0001) // Begin OBCS MONITOR field statistics
(PID.TID 0000.0001) // =======================================================
(PID.TID 0000.0001) %MON obc_N_vVel_max               =   1.4983450290378E-05
(PID.TID 0000.0001) %MON obc_N_vVel_min               =   1.4983450290377E-05
(PID.TID 0000.0001) %MON obc_N_vVel_mean              =   1.4983450290378E-05
(PID.TID 0000.0001) %MON obc_N_vVel_sd                =  -2.5823544748140E-23
(PID.TID 0000.0001) %MON obc_N_vVel_Int               =   9.8890771916494E+02
(PID.TID 0000.0001) // =======================================================
(PID.TID 0000.0001) // End OBCS MONITOR field statistics
(PID.TID 0000.0001) // =======================================================
 cg2d: Sum(rhs),rhsMax =   4.50809899919367E+00  2.99970454954716E+02
(PID.TID 0000.0001)      cg2d_init_res =   1.22122710117646E-05
(PID.TID 0000.0001)      cg2d_iters(min,last) =      -1      85
(PID.TID 0000.0001)      cg2d_last_res =   8.96536422062743E-12
(PID.TID 0000.0001) // =======================================================
(PID.TID 0000.0001) // Begin MONITOR dynamic field statistics
(PID.TID 0000.0001) // =======================================================
(PID.TID 0000.0001) %MON time_tsnumber                =                  1527
(PID.TID 0000.0001) %MON time_secondsf                =   1.5270000000000E+05
(PID.TID 0000.0001) %MON dynstat_eta_max              =   5.8042661771550E+00
(PID.TID 0000.0001) %MON dynstat_eta_min              =  -1.4195573885092E+01
(PID.TID 0000.0001) %MON dynstat_eta_mean             =  -2.5042527921649E+00
(PID.TID 0000.0001) %MON dynstat_eta_sd               =   4.9502128986567E+00
(PID.TID 0000.0001) %MON dynstat_eta_del2             =   2.0717261275982E-01
(PID.TID 0000.0001) %MON dynstat_uvel_max             =   1.5452087516088E-02
(PID.TID 0000.0001) %MON dynstat_uvel_min             =  -6.8219404010073E-02
(PID.TID 0000.0001) %MON dynstat_uvel_mean            =  -1.0441753950441E-07
(PID.TID 0000.0001) %MON dynstat_uvel_sd              =   2.0189606693321E-03
(PID.TID 0000.0001) %MON dynstat_uvel_del2            =   3.1527618060360E-06
(PID.TID 0000.0001) %MON dynstat_vvel_max             =   4.1355299114976E-02
(PID.TID 0000.0001) %MON dynstat_vvel_min             =  -2.4312584166251E-02
(PID.TID 0000.0001) %MON dynstat_vvel_mean            =   1.5316734419333E-05
(PID.TID 0000.0001) %MON dynstat_vvel_sd              =   1.0455725112321E-03
(PID.TID 0000.0001) %MON dynstat_vvel_del2            =   2.1699509501484E-06
(PID.TID 0000.0001) %MON dynstat_wvel_max             =   2.3221575245502E-03
(PID.TID 0000.0001) %MON dynstat_wvel_min             =  -2.2787796460220E-03
(PID.TID 0000.0001) %MON dynstat_wvel_mean            =   7.5674649771258E-09
(PID.TID 0000.0001) %MON dynstat_wvel_sd              =   3.8862753795485E-05
(PID.TID 0000.0001) %MON dynstat_wvel_del2            =   1.5209349192901E-07
(PID.TID 0000.0001) %MON dynstat_theta_max            =   1.2000000000000E+00
(PID.TID 0000.0001) %MON dynstat_theta_min            =  -1.0000000000000E+00
(PID.TID 0000.0001) %MON dynstat_theta_mean           =   5.6811721238894E-01
(PID.TID 0000.0001) %MON dynstat_theta_sd             =   8.6805798705686E-01
(PID.TID 0000.0001) %MON dynstat_theta_del2           =   6.8076933936732E-06
(PID.TID 0000.0001) %MON dynstat_salt_max             =   3.4700000000000E+01
(PID.TID 0000.0001) %MON dynstat_salt_min             =   3.4000000000000E+01
(PID.TID 0000.0001) %MON dynstat_salt_mean            =   3.4498860887861E+01
(PID.TID 0000.0001) %MON dynstat_salt_sd              =   2.7616606380441E-01
(PID.TID 0000.0001) %MON dynstat_salt_del2            =   2.6991377339928E-06
(PID.TID 0000.0001) %MON advcfl_uvel_max              =   6.8219404010073E-03
(PID.TID 0000.0001) %MON advcfl_vvel_max              =   4.1355299114976E-03
(PID.TID 0000.0001) %MON advcfl_wvel_max              =   1.1610787622751E-02
(PID.TID 0000.0001) %MON advcfl_W_hf_max              =   1.1610787622751E-02
(PID.TID 0000.0001) %MON pe_b_mean                    =  -8.2964346492414E-01
(PID.TID 0000.0001) %MON ke_max                       =   2.0710402113728E-03
(PID.TID 0000.0001) %MON ke_mean                      =   2.5444028200510E-06
(PID.TID 0000.0001) %MON ke_vol                       =   4.2724647416715E+12
(PID.TID 0000.0001) // =======================================================
(PID.TID 0000.0001) // End MONITOR dynamic field statistics
(PID.TID 0000.0001) // =======================================================
(PID.TID 0000.0001) // =======================================================
(PID.TID 0000.0001) // Begin OBCS MONITOR field statistics
(PID.TID 0000.0001) // =======================================================
(PID.TID 0000.0001) %MON obc_N_vVel_max               =   1.4989168864569E-05
(PID.TID 0000.0001) %MON obc_N_vVel_min               =   1.4989168864569E-05
(PID.TID 0000.0001) %MON obc_N_vVel_mean              =   1.4989168864569E-05
(PID.TID 0000.0001) %MON obc_N_vVel_sd                =   1.7831083757026E-12
(PID.TID 0000.0001) %MON obc_N_vVel_Int               =   9.8928514506153E+02
(PID.TID 0000.0001) // =======================================================
(PID.TID 0000.0001) // End OBCS MONITOR field statistics
(PID.TID 0000.0001) // =======================================================
 cg2d: Sum(rhs),rhsMax =   4.50809875687857E+00  2.99970534179746E+02
(PID.TID 0000.0001)      cg2d_init_res =   1.22279383809318E-05
(PID.TID 0000.0001)      cg2d_iters(min,last) =      -1      85
(PID.TID 0000.0001)      cg2d_last_res =   8.96921570745354E-12
(PID.TID 0000.0001) // =======================================================
(PID.TID 0000.0001) // Begin MONITOR dynamic field statistics
(PID.TID 0000.0001) // =======================================================
(PID.TID 0000.0001) %MON time_tsnumber                =                  1528
(PID.TID 0000.0001) %MON time_secondsf                =   1.5280000000000E+05
(PID.TID 0000.0001) %MON dynstat_eta_max              =   5.8043059396966E+00
(PID.TID 0000.0001) %MON dynstat_eta_min              =  -1.4195603834105E+01
(PID.TID 0000.0001) %MON dynstat_eta_mean             =  -2.5042533189554E+00
(PID.TID 0000.0001) %MON dynstat_eta_sd               =   4.9502137564208E+00
(PID.TID 0000.0001) %MON dynstat_eta_del2             =   2.0717267493351E-01
(PID.TID 0000.0001) %MON dynstat_uvel_max             =   1.5484788904475E-02
(PID.TID 0000.0001) %MON dynstat_uvel_min             =  -6.8339680713006E-02
(PID.TID 0000.0001) %MON dynstat_uvel_mean            =  -1.0434588616836E-07
(PID.TID 0000.0001) %MON dynstat_uvel_sd              =   2.0231686290981E-03
(PID.TID 0000.0001) %MON dynstat_uvel_del2            =   3.1603357603749E-06
(PID.TID 0000.0001) %MON dynstat_vvel_max             =   4.1400456404611E-02
(PID.TID 0000.0001) %MON dynstat_vvel_min             =  -2.4367135069197E-02
(PID.TID 0000.0001) %MON dynstat_vvel_mean            =   1.5321987073359E-05
(PID.TID 0000.0001) %MON dynstat_vvel_sd              =   1.0475473101387E-03
(PID.TID 0000.0001) %MON dynstat_vvel_del2            =   2.1740813076233E-06
(PID.TID 0000.0001) %MON dynstat_wvel_max             =   2.3251116392236E-03
(PID.TID 0000.0001) %MON dynstat_wvel_min             =  -2.2819816828932E-03
(PID.TID 0000.0001) %MON dynstat_wvel_mean            =   7.5681334866077E-09
(PID.TID 0000.0001) %MON dynstat_wvel_sd              =   3.8922432348478E-05
(PID.TID 0000.0001) %MON dynstat_wvel_del2            =   1.5231582752600E-07
(PID.TID 0000.0001) %MON dynstat_theta_max            =   1.2000000000000E+00
(PID.TID 0000.0001) %MON dynstat_theta_min            =  -1.0000000000000E+00
(PID.TID 0000.0001) %MON dynstat_theta_mean           =   5.6811528654210E-01
(PID.TID 0000.0001) %MON dynstat_theta_sd             =   8.6805700819587E-01
(PID.TID 0000.0001) %MON dynstat_theta_del2           =   6.8199120113718E-06
(PID.TID 0000.0001) %MON dynstat_salt_max             =   3.4700000000000E+01
(PID.TID 0000.0001) %MON dynstat_salt_min             =   3.4000000000000E+01
(PID.TID 0000.0001) %MON dynstat_salt_mean            =   3.4498860116863E+01
(PID.TID 0000.0001) %MON dynstat_salt_sd              =   2.7616569201954E-01
(PID.TID 0000.0001) %MON dynstat_salt_del2            =   2.7039953817641E-06
(PID.TID 0000.0001) %MON advcfl_uvel_max              =   6.8339680713006E-03
(PID.TID 0000.0001) %MON advcfl_vvel_max              =   4.1400456404611E-03
(PID.TID 0000.0001) %MON advcfl_wvel_max              =   1.1625558196118E-02
(PID.TID 0000.0001) %MON advcfl_W_hf_max              =   1.1625558196118E-02
(PID.TID 0000.0001) %MON pe_b_mean                    =  -8.2964276119947E-01
(PID.TID 0000.0001) %MON ke_max                       =   2.0798971079545E-03
(PID.TID 0000.0001) %MON ke_mean                      =   2.5548055360773E-06
(PID.TID 0000.0001) %MON ke_vol                       =   4.2724647384145E+12
(PID.TID 0000.0001) // =======================================================
(PID.TID 0000.0001) // End MONITOR dynamic field statistics
(PID.TID 0000.0001) // =======================================================
(PID.TID 0000.0001) // =======================================================
(PID.TID 0000.0001) // Begin OBCS MONITOR field statistics
(PID.TID 0000.0001) // =======================================================
(PID.TID 0000.0001) %MON obc_N_vVel_max               =   1.4994172510913E-05
(PID.TID 0000.0001) %MON obc_N_vVel_min               =   1.4994172510913E-05
(PID.TID 0000.0001) %MON obc_N_vVel_mean              =   1.4994172510913E-05
(PID.TID 0000.0001) %MON obc_N_vVel_sd                =   2.4541615340380E-12
(PID.TID 0000.0001) %MON obc_N_vVel_Int               =   9.8961538572026E+02
(PID.TID 0000.0001) // =======================================================
(PID.TID 0000.0001) // End OBCS MONITOR field statistics
(PID.TID 0000.0001) // =======================================================
 cg2d: Sum(rhs),rhsMax =   4.50809847414115E+00  2.99970613406752E+02
(PID.TID 0000.0001)      cg2d_init_res =   1.22432677415443E-05
(PID.TID 0000.0001)      cg2d_iters(min,last) =      -1      85
(PID.TID 0000.0001)      cg2d_last_res =   8.97263816440383E-12
(PID.TID 0000.0001) // =======================================================
(PID.TID 0000.0001) // Begin MONITOR dynamic field statistics
(PID.TID 0000.0001) // =======================================================
(PID.TID 0000.0001) %MON time_tsnumber                =                  1529
(PID.TID 0000.0001) %MON time_secondsf                =   1.5290000000000E+05
(PID.TID 0000.0001) %MON dynstat_eta_max              =   5.8043458102046E+00
(PID.TID 0000.0001) %MON dynstat_eta_min              =  -1.4195633784499E+01
(PID.TID 0000.0001) %MON dynstat_eta_mean             =  -2.5042538233077E+00
(PID.TID 0000.0001) %MON dynstat_eta_sd               =   4.9502146069830E+00
(PID.TID 0000.0001) %MON dynstat_eta_del2             =   2.0717273719215E-01
(PID.TID 0000.0001) %MON dynstat_uvel_max             =   1.5517537911350E-02
(PID.TID 0000.0001) %MON dynstat_uvel_min             =  -6.8459951341782E-02
(PID.TID 0000.0001) %MON dynstat_uvel_mean            =  -1.0426947833215E-07
(PID.TID 0000.0001) %MON dynstat_uvel_sd              =   2.0273828259621E-03
(PID.TID 0000.0001) %MON dynstat_uvel_del2            =   3.1679264785881E-06
(PID.TID 0000.0001) %MON dynstat_vvel_max             =   4.1445563972353E-02
(PID.TID 0000.0001) %MON dynstat_vvel_min             =  -2.4421758649927E-02
(PID.TID 0000.0001) %MON dynstat_vvel_mean            =   1.5326249822907E-05
(PID.TID 0000.0001) %MON dynstat_vvel_sd              =   1.0495241647022E-03
(PID.TID 0000.0001) %MON dynstat_vvel_del2            =   2.1782157723368E-06
(PID.TID 0000.0001) %MON dynstat_wvel_max             =   2.3280627646021E-03
(PID.TID 0000.0001) %MON dynstat_wvel_min             =  -2.2851810990969E-03
(PID.TID 0000.0001) %MON dynstat_wvel_mean            =   7.5668941894333E-09
(PID.TID 0000.0001) %MON dynstat_wvel_sd              =   3.8978581571705E-05
(PID.TID 0000.0001) %MON dynstat_wvel_del2            =   1.5253036841556E-07
(PID.TID 0000.0001) %MON dynstat_theta_max            =   1.2000000000000E+00
(PID.TID 0000.0001) %MON dynstat_theta_min            =  -1.0000000000000E+00
(PID.TID 0000.0001) %MON dynstat_theta_mean           =   5.6811335741794E-01
(PID.TID 0000.0001) %MON dynstat_theta_sd             =   8.6805602800933E-01
(PID.TID 0000.0001) %MON dynstat_theta_del2           =   6.8321512374561E-06
(PID.TID 0000.0001) %MON dynstat_salt_max             =   3.4700000000000E+01
(PID.TID 0000.0001) %MON dynstat_salt_min             =   3.4000000000000E+01
(PID.TID 0000.0001) %MON dynstat_salt_mean            =   3.4498859344556E+01
(PID.TID 0000.0001) %MON dynstat_salt_sd              =   2.7616531975677E-01
(PID.TID 0000.0001) %MON dynstat_salt_del2            =   2.7088602295700E-06
(PID.TID 0000.0001) %MON advcfl_uvel_max              =   6.8459951341782E-03
(PID.TID 0000.0001) %MON advcfl_vvel_max              =   4.1445563972353E-03
(PID.TID 0000.0001) %MON advcfl_wvel_max              =   1.1640313823010E-02
(PID.TID 0000.0001) %MON advcfl_W_hf_max              =   1.1640313823010E-02
(PID.TID 0000.0001) %MON pe_b_mean                    =  -8.2964204903364E-01
(PID.TID 0000.0001) %MON ke_max                       =   2.0887807153653E-03
(PID.TID 0000.0001) %MON ke_mean                      =   2.5652440443955E-06
(PID.TID 0000.0001) %MON ke_vol                       =   4.2724647352854E+12
(PID.TID 0000.0001) // =======================================================
(PID.TID 0000.0001) // End MONITOR dynamic field statistics
(PID.TID 0000.0001) // =======================================================
(PID.TID 0000.0001) // =======================================================
(PID.TID 0000.0001) // Begin OBCS MONITOR field statistics
(PID.TID 0000.0001) // =======================================================
(PID.TID 0000.0001) %MON obc_N_vVel_max               =   1.4998371505675E-05
(PID.TID 0000.0001) %MON obc_N_vVel_min               =   1.4998371505675E-05
(PID.TID 0000.0001) %MON obc_N_vVel_mean              =   1.4998371505675E-05
(PID.TID 0000.0001) %MON obc_N_vVel_sd                =  -4.2393006393343E-24
(PID.TID 0000.0001) %MON obc_N_vVel_Int               =   9.8989251937454E+02
(PID.TID 0000.0001) // =======================================================
(PID.TID 0000.0001) // End OBCS MONITOR field statistics
(PID.TID 0000.0001) // =======================================================
 cg2d: Sum(rhs),rhsMax =   4.50809814930667E+00  2.99970692627234E+02
(PID.TID 0000.0001)      cg2d_init_res =   1.22582782036807E-05
(PID.TID 0000.0001)      cg2d_iters(min,last) =      -1      85
(PID.TID 0000.0001)      cg2d_last_res =   8.97560336920660E-12
(PID.TID 0000.0001) // =======================================================
(PID.TID 0000.0001) // Begin MONITOR dynamic field statistics
(PID.TID 0000.0001) // =======================================================
(PID.TID 0000.0001) %MON time_tsnumber                =                  1530
(PID.TID 0000.0001) %MON time_secondsf                =   1.5300000000000E+05
(PID.TID 0000.0001) %MON dynstat_eta_max              =   5.8043857909304E+00
(PID.TID 0000.0001) %MON dynstat_eta_min              =  -1.4195663735214E+01
(PID.TID 0000.0001) %MON dynstat_eta_mean             =  -2.5042543042205E+00
(PID.TID 0000.0001) %MON dynstat_eta_sd               =   4.9502154499526E+00
(PID.TID 0000.0001) %MON dynstat_eta_del2             =   2.0717279953510E-01
(PID.TID 0000.0001) %MON dynstat_uvel_max             =   1.5550334567493E-02
(PID.TID 0000.0001) %MON dynstat_uvel_min             =  -6.8580214973441E-02
(PID.TID 0000.0001) %MON dynstat_uvel_mean            =  -1.0418944704289E-07
(PID.TID 0000.0001) %MON dynstat_uvel_sd              =   2.0316032538937E-03
(PID.TID 0000.0001) %MON dynstat_uvel_del2            =   3.1755339765378E-06
(PID.TID 0000.0001) %MON dynstat_vvel_max             =   4.1490621612030E-02
(PID.TID 0000.0001) %MON dynstat_vvel_min             =  -2.4476454609555E-02
(PID.TID 0000.0001) %MON dynstat_vvel_mean            =   1.5329456025356E-05
(PID.TID 0000.0001) %MON dynstat_vvel_sd              =   1.0515032137850E-03
(PID.TID 0000.0001) %MON dynstat_vvel_del2            =   2.1823547980170E-06
(PID.TID 0000.0001) %MON dynstat_wvel_max             =   2.3310108843032E-03
(PID.TID 0000.0001) %MON dynstat_wvel_min             =  -2.2883778202209E-03
(PID.TID 0000.0001) %MON dynstat_wvel_mean            =   7.5638346320414E-09
(PID.TID 0000.0001) %MON dynstat_wvel_sd              =   3.9031694618673E-05
(PID.TID 0000.0001) %MON dynstat_wvel_del2            =   1.5273814415223E-07
(PID.TID 0000.0001) %MON dynstat_theta_max            =   1.2000000000000E+00
(PID.TID 0000.0001) %MON dynstat_theta_min            =  -1.0000000000000E+00
(PID.TID 0000.0001) %MON dynstat_theta_mean           =   5.6811142501178E-01
(PID.TID 0000.0001) %MON dynstat_theta_sd             =   8.6805504649912E-01
(PID.TID 0000.0001) %MON dynstat_theta_del2           =   6.8444107367921E-06
(PID.TID 0000.0001) %MON dynstat_salt_max             =   3.4700000000000E+01
(PID.TID 0000.0001) %MON dynstat_salt_min             =   3.4000000000000E+01
(PID.TID 0000.0001) %MON dynstat_salt_mean            =   3.4498858570939E+01
(PID.TID 0000.0001) %MON dynstat_salt_sd              =   2.7616494701710E-01
(PID.TID 0000.0001) %MON dynstat_salt_del2            =   2.7137325029067E-06
(PID.TID 0000.0001) %MON advcfl_uvel_max              =   6.8580214973441E-03
(PID.TID 0000.0001) %MON advcfl_vvel_max              =   4.1490621612030E-03
(PID.TID 0000.0001) %MON advcfl_wvel_max              =   1.1655054421516E-02
(PID.TID 0000.0001) %MON advcfl_W_hf_max              =   1.1655054421516E-02
(PID.TID 0000.0001) %MON pe_b_mean                    =  -8.2964132814583E-01
(PID.TID 0000.0001) %MON ke_max                       =   2.0976910331666E-03
(PID.TID 0000.0001) %MON ke_mean                      =   2.5757185674537E-06
(PID.TID 0000.0001) %MON ke_vol                       =   4.2724647322896E+12
(PID.TID 0000.0001) // =======================================================
(PID.TID 0000.0001) // End MONITOR dynamic field statistics
(PID.TID 0000.0001) // =======================================================
(PID.TID 0000.0001) // =======================================================
(PID.TID 0000.0001) // Begin OBCS MONITOR field statistics
(PID.TID 0000.0001) // =======================================================
(PID.TID 0000.0001) %MON obc_N_vVel_max               =   1.5001694844236E-05
(PID.TID 0000.0001) %MON obc_N_vVel_min               =   1.5001694844235E-05
(PID.TID 0000.0001) %MON obc_N_vVel_mean              =   1.5001694844236E-05
(PID.TID 0000.0001) %MON obc_N_vVel_sd                =   5.7969140398118E-13
(PID.TID 0000.0001) %MON obc_N_vVel_Int               =   9.9011185971954E+02
(PID.TID 0000.0001) // =======================================================
(PID.TID 0000.0001) // End OBCS MONITOR field statistics
(PID.TID 0000.0001) // =======================================================
 cg2d: Sum(rhs),rhsMax =   4.50809778058057E+00  2.99970771833896E+02
(PID.TID 0000.0001)      cg2d_init_res =   1.22730687566561E-05
(PID.TID 0000.0001)      cg2d_iters(min,last) =      -1      85
(PID.TID 0000.0001)      cg2d_last_res =   8.97837328316473E-12
(PID.TID 0000.0001) // =======================================================
(PID.TID 0000.0001) // Begin MONITOR dynamic field statistics
(PID.TID 0000.0001) // =======================================================
(PID.TID 0000.0001) %MON time_tsnumber                =                  1531
(PID.TID 0000.0001) %MON time_secondsf                =   1.5310000000000E+05
(PID.TID 0000.0001) %MON dynstat_eta_max              =   5.8044258841954E+00
(PID.TID 0000.0001) %MON dynstat_eta_min              =  -1.4195693685176E+01
(PID.TID 0000.0001) %MON dynstat_eta_mean             =  -2.5042547606360E+00
(PID.TID 0000.0001) %MON dynstat_eta_sd               =   4.9502162849654E+00
(PID.TID 0000.0001) %MON dynstat_eta_del2             =   2.0717286196264E-01
(PID.TID 0000.0001) %MON dynstat_uvel_max             =   1.5583178902236E-02
(PID.TID 0000.0001) %MON dynstat_uvel_min             =  -6.8700470694592E-02
(PID.TID 0000.0001) %MON dynstat_uvel_mean            =  -1.0410699908603E-07
(PID.TID 0000.0001) %MON dynstat_uvel_sd              =   2.0358299066395E-03
(PID.TID 0000.0001) %MON dynstat_uvel_del2            =   3.1831582700823E-06
(PID.TID 0000.0001) %MON dynstat_vvel_max             =   4.1535629123016E-02
(PID.TID 0000.0001) %MON dynstat_vvel_min             =  -2.4531222639158E-02
(PID.TID 0000.0001) %MON dynstat_vvel_mean            =   1.5331563073692E-05
(PID.TID 0000.0001) %MON dynstat_vvel_sd              =   1.0534846282370E-03
(PID.TID 0000.0001) %MON dynstat_vvel_del2            =   2.1864989067980E-06
(PID.TID 0000.0001) %MON dynstat_wvel_max             =   2.3339559819927E-03
(PID.TID 0000.0001) %MON dynstat_wvel_min             =  -2.2915717709968E-03
(PID.TID 0000.0001) %MON dynstat_wvel_mean            =   7.5590792950941E-09
(PID.TID 0000.0001) %MON dynstat_wvel_sd              =   3.9082363298249E-05
(PID.TID 0000.0001) %MON dynstat_wvel_del2            =   1.5294036082184E-07
(PID.TID 0000.0001) %MON dynstat_theta_max            =   1.2000000000000E+00
(PID.TID 0000.0001) %MON dynstat_theta_min            =  -1.0000000000000E+00
(PID.TID 0000.0001) %MON dynstat_theta_mean           =   5.6810948931916E-01
(PID.TID 0000.0001) %MON dynstat_theta_sd             =   8.6805406366727E-01
(PID.TID 0000.0001) %MON dynstat_theta_del2           =   6.8566900406528E-06
(PID.TID 0000.0001) %MON dynstat_salt_max             =   3.4700000000000E+01
(PID.TID 0000.0001) %MON dynstat_salt_min             =   3.4000000000000E+01
(PID.TID 0000.0001) %MON dynstat_salt_mean            =   3.4498857796009E+01
(PID.TID 0000.0001) %MON dynstat_salt_sd              =   2.7616457380123E-01
(PID.TID 0000.0001) %MON dynstat_salt_del2            =   2.7186120924633E-06
(PID.TID 0000.0001) %MON advcfl_uvel_max              =   6.8700470694592E-03
(PID.TID 0000.0001) %MON advcfl_vvel_max              =   4.1535629123016E-03
(PID.TID 0000.0001) %MON advcfl_wvel_max              =   1.1669779909963E-02
(PID.TID 0000.0001) %MON advcfl_W_hf_max              =   1.1669779909963E-02
(PID.TID 0000.0001) %MON pe_b_mean                    =  -8.2964059824622E-01
(PID.TID 0000.0001) %MON ke_max                       =   2.1066280606876E-03
(PID.TID 0000.0001) %MON ke_mean                      =   2.5862293624446E-06
(PID.TID 0000.0001) %MON ke_vol                       =   4.2724647294329E+12
(PID.TID 0000.0001) // =======================================================
(PID.TID 0000.0001) // End MONITOR dynamic field statistics
(PID.TID 0000.0001) // =======================================================
(PID.TID 0000.0001) // =======================================================
(PID.TID 0000.0001) // Begin OBCS MONITOR field statistics
(PID.TID 0000.0001) // =======================================================
(PID.TID 0000.0001) %MON obc_N_vVel_max               =   1.5004091614540E-05
(PID.TID 0000.0001) %MON obc_N_vVel_min               =   1.5004091614540E-05
(PID.TID 0000.0001) %MON obc_N_vVel_mean              =   1.5004091614540E-05
(PID.TID 0000.0001) %MON obc_N_vVel_sd                =  -6.4623485355705E-24
(PID.TID 0000.0001) %MON obc_N_vVel_Int               =   9.9027004655964E+02
(PID.TID 0000.0001) // =======================================================
(PID.TID 0000.0001) // End OBCS MONITOR field statistics
(PID.TID 0000.0001) // =======================================================
 cg2d: Sum(rhs),rhsMax =   4.50809736608660E+00  2.99970851020901E+02
(PID.TID 0000.0001)      cg2d_init_res =   1.22876643993398E-05
(PID.TID 0000.0001)      cg2d_iters(min,last) =      -1      85
(PID.TID 0000.0001)      cg2d_last_res =   8.98094683425683E-12
(PID.TID 0000.0001) // =======================================================
(PID.TID 0000.0001) // Begin MONITOR dynamic field statistics
(PID.TID 0000.0001) // =======================================================
(PID.TID 0000.0001) %MON time_tsnumber                =                  1532
(PID.TID 0000.0001) %MON time_secondsf                =   1.5320000000000E+05
(PID.TID 0000.0001) %MON dynstat_eta_max              =   5.8044660923377E+00
(PID.TID 0000.0001) %MON dynstat_eta_min              =  -1.4195723633329E+01
(PID.TID 0000.0001) %MON dynstat_eta_mean             =  -2.5042551914631E+00
(PID.TID 0000.0001) %MON dynstat_eta_sd               =   4.9502171116533E+00
(PID.TID 0000.0001) %MON dynstat_eta_del2             =   2.0717292447458E-01
(PID.TID 0000.0001) %MON dynstat_uvel_max             =   1.5616070943329E-02
(PID.TID 0000.0001) %MON dynstat_uvel_min             =  -6.8820717601918E-02
(PID.TID 0000.0001) %MON dynstat_uvel_mean            =  -1.0402337450445E-07
(PID.TID 0000.0001) %MON dynstat_uvel_sd              =   2.0400627778695E-03
(PID.TID 0000.0001) %MON dynstat_uvel_del2            =   3.1907993753067E-06
(PID.TID 0000.0001) %MON dynstat_vvel_max             =   4.1580586313141E-02
(PID.TID 0000.0001) %MON dynstat_vvel_min             =  -2.4586062420113E-02
(PID.TID 0000.0001) %MON dynstat_vvel_mean            =   1.5332553135006E-05
(PID.TID 0000.0001) %MON dynstat_vvel_sd              =   1.0554686043114E-03
(PID.TID 0000.0001) %MON dynstat_vvel_del2            =   2.1906486625600E-06
(PID.TID 0000.0001) %MON dynstat_wvel_max             =   2.3368980390719E-03
(PID.TID 0000.0001) %MON dynstat_wvel_min             =  -2.2947628753457E-03
(PID.TID 0000.0001) %MON dynstat_wvel_mean            =   7.5527913570133E-09
(PID.TID 0000.0001) %MON dynstat_wvel_sd              =   3.9131254479655E-05
(PID.TID 0000.0001) %MON dynstat_wvel_del2            =   1.5313833829216E-07
(PID.TID 0000.0001) %MON dynstat_theta_max            =   1.2000000000000E+00
(PID.TID 0000.0001) %MON dynstat_theta_min            =  -1.0000000000000E+00
(PID.TID 0000.0001) %MON dynstat_theta_mean           =   5.6810755033586E-01
(PID.TID 0000.0001) %MON dynstat_theta_sd             =   8.6805307951538E-01
(PID.TID 0000.0001) %MON dynstat_theta_del2           =   6.8689885786054E-06
(PID.TID 0000.0001) %MON dynstat_salt_max             =   3.4700000000000E+01
(PID.TID 0000.0001) %MON dynstat_salt_min             =   3.4000000000000E+01
(PID.TID 0000.0001) %MON dynstat_salt_mean            =   3.4498857019764E+01
(PID.TID 0000.0001) %MON dynstat_salt_sd              =   2.7616420010994E-01
(PID.TID 0000.0001) %MON dynstat_salt_del2            =   2.7234988522660E-06
(PID.TID 0000.0001) %MON advcfl_uvel_max              =   6.8820717601918E-03
(PID.TID 0000.0001) %MON advcfl_vvel_max              =   4.1580586313141E-03
(PID.TID 0000.0001) %MON advcfl_wvel_max              =   1.1684490195359E-02
(PID.TID 0000.0001) %MON advcfl_W_hf_max              =   1.1684490195359E-02
(PID.TID 0000.0001) %MON pe_b_mean                    =  -8.2963985904225E-01
(PID.TID 0000.0001) %MON ke_max                       =   2.1155917970389E-03
(PID.TID 0000.0001) %MON ke_mean                      =   2.5967767149815E-06
(PID.TID 0000.0001) %MON ke_vol                       =   4.2724647267218E+12
(PID.TID 0000.0001) // =======================================================
(PID.TID 0000.0001) // End MONITOR dynamic field statistics
(PID.TID 0000.0001) // =======================================================
(PID.TID 0000.0001) // =======================================================
(PID.TID 0000.0001) // Begin OBCS MONITOR field statistics
(PID.TID 0000.0001) // =======================================================
(PID.TID 0000.0001) %MON obc_N_vVel_max               =   1.5005531953536E-05
(PID.TID 0000.0001) %MON obc_N_vVel_min               =   1.5005531953536E-05
(PID.TID 0000.0001) %MON obc_N_vVel_mean              =   1.5005531953536E-05
(PID.TID 0000.0001) %MON obc_N_vVel_sd                =  -1.2976395859426E-23
(PID.TID 0000.0001) %MON obc_N_vVel_Int               =   9.9036510893340E+02
(PID.TID 0000.0001) // =======================================================
(PID.TID 0000.0001) // End OBCS MONITOR field statistics
(PID.TID 0000.0001) // =======================================================
 cg2d: Sum(rhs),rhsMax =   4.50809690391066E+00  2.99970930183843E+02
(PID.TID 0000.0001)      cg2d_init_res =   1.23021217562901E-05
(PID.TID 0000.0001)      cg2d_iters(min,last) =      -1      85
(PID.TID 0000.0001)      cg2d_last_res =   8.98342062546568E-12
(PID.TID 0000.0001) // =======================================================
(PID.TID 0000.0001) // Begin MONITOR dynamic field statistics
(PID.TID 0000.0001) // =======================================================
(PID.TID 0000.0001) %MON time_tsnumber                =                  1533
(PID.TID 0000.0001) %MON time_secondsf                =   1.5330000000000E+05
(PID.TID 0000.0001) %MON dynstat_eta_max              =   5.8045064176638E+00
(PID.TID 0000.0001) %MON dynstat_eta_min              =  -1.4195753578650E+01
(PID.TID 0000.0001) %MON dynstat_eta_mean             =  -2.5042555956018E+00
(PID.TID 0000.0001) %MON dynstat_eta_sd               =   4.9502179296656E+00
(PID.TID 0000.0001) %MON dynstat_eta_del2             =   2.0717298707082E-01
(PID.TID 0000.0001) %MON dynstat_uvel_max             =   1.5649010717318E-02
(PID.TID 0000.0001) %MON dynstat_uvel_min             =  -6.8940954801951E-02
(PID.TID 0000.0001) %MON dynstat_uvel_mean            =  -1.0393982504842E-07
(PID.TID 0000.0001) %MON dynstat_uvel_sd              =   2.0443018612120E-03
(PID.TID 0000.0001) %MON dynstat_uvel_del2            =   3.1984573087108E-06
(PID.TID 0000.0001) %MON dynstat_vvel_max             =   4.1625492995512E-02
(PID.TID 0000.0001) %MON dynstat_vvel_min             =  -2.4640973624065E-02
(PID.TID 0000.0001) %MON dynstat_vvel_mean            =   1.5332433316942E-05
(PID.TID 0000.0001) %MON dynstat_vvel_sd              =   1.0574553562592E-03
(PID.TID 0000.0001) %MON dynstat_vvel_del2            =   2.1948046493173E-06
(PID.TID 0000.0001) %MON dynstat_wvel_max             =   2.3398370361861E-03
(PID.TID 0000.0001) %MON dynstat_wvel_min             =  -2.2979510563480E-03
(PID.TID 0000.0001) %MON dynstat_wvel_mean            =   7.5451662393935E-09
(PID.TID 0000.0001) %MON dynstat_wvel_sd              =   3.9179084746086E-05
(PID.TID 0000.0001) %MON dynstat_wvel_del2            =   1.5333345188632E-07
(PID.TID 0000.0001) %MON dynstat_theta_max            =   1.2000000000000E+00
(PID.TID 0000.0001) %MON dynstat_theta_min            =  -1.0000000000000E+00
(PID.TID 0000.0001) %MON dynstat_theta_mean           =   5.6810560805790E-01
(PID.TID 0000.0001) %MON dynstat_theta_sd             =   8.6805209404406E-01
(PID.TID 0000.0001) %MON dynstat_theta_del2           =   6.8813056954652E-06
(PID.TID 0000.0001) %MON dynstat_salt_max             =   3.4700000000000E+01
(PID.TID 0000.0001) %MON dynstat_salt_min             =   3.4000000000000E+01
(PID.TID 0000.0001) %MON dynstat_salt_mean            =   3.4498856242204E+01
(PID.TID 0000.0001) %MON dynstat_salt_sd              =   2.7616382594331E-01
(PID.TID 0000.0001) %MON dynstat_salt_del2            =   2.7283926092753E-06
(PID.TID 0000.0001) %MON advcfl_uvel_max              =   6.8940954801951E-03
(PID.TID 0000.0001) %MON advcfl_vvel_max              =   4.1625492995512E-03
(PID.TID 0000.0001) %MON advcfl_wvel_max              =   1.1699185180931E-02
(PID.TID 0000.0001) %MON advcfl_W_hf_max              =   1.1699185180931E-02
(PID.TID 0000.0001) %MON pe_b_mean                    =  -8.2963911024502E-01
(PID.TID 0000.0001) %MON ke_max                       =   2.1245822411103E-03
(PID.TID 0000.0001) %MON ke_mean                      =   2.6073609315930E-06
(PID.TID 0000.0001) %MON ke_vol                       =   4.2724647241627E+12
(PID.TID 0000.0001) // =======================================================
(PID.TID 0000.0001) // End MONITOR dynamic field statistics
(PID.TID 0000.0001) // =======================================================
(PID.TID 0000.0001) // =======================================================
(PID.TID 0000.0001) // Begin OBCS MONITOR field statistics
(PID.TID 0000.0001) // =======================================================
(PID.TID 0000.0001) %MON obc_N_vVel_max               =   1.5006007461938E-05
(PID.TID 0000.0001) %MON obc_N_vVel_min               =   1.5006007461937E-05
(PID.TID 0000.0001) %MON obc_N_vVel_mean              =   1.5006007461938E-05
(PID.TID 0000.0001) %MON obc_N_vVel_sd                =  -1.5509636485369E-24
(PID.TID 0000.0001) %MON obc_N_vVel_Int               =   9.9039649248788E+02
(PID.TID 0000.0001) // =======================================================
(PID.TID 0000.0001) // End OBCS MONITOR field statistics
(PID.TID 0000.0001) // =======================================================
 cg2d: Sum(rhs),rhsMax =   4.50809639213933E+00  2.99971009320049E+02
(PID.TID 0000.0001)      cg2d_init_res =   1.23164990366303E-05
(PID.TID 0000.0001)      cg2d_iters(min,last) =      -1      85
(PID.TID 0000.0001)      cg2d_last_res =   8.98589238859363E-12
(PID.TID 0000.0001) // =======================================================
(PID.TID 0000.0001) // Begin MONITOR dynamic field statistics
(PID.TID 0000.0001) // =======================================================
(PID.TID 0000.0001) %MON time_tsnumber                =                  1534
(PID.TID 0000.0001) %MON time_secondsf                =   1.5340000000000E+05
(PID.TID 0000.0001) %MON dynstat_eta_max              =   5.8045468624085E+00
(PID.TID 0000.0001) %MON dynstat_eta_min              =  -1.4195783520185E+01
(PID.TID 0000.0001) %MON dynstat_eta_mean             =  -2.5042559719669E+00
(PID.TID 0000.0001) %MON dynstat_eta_sd               =   4.9502187386753E+00
(PID.TID 0000.0001) %MON dynstat_eta_del2             =   2.0717304975126E-01
(PID.TID 0000.0001) %MON dynstat_uvel_max             =   1.5681998249224E-02
(PID.TID 0000.0001) %MON dynstat_uvel_min             =  -6.9061181410908E-02
(PID.TID 0000.0001) %MON dynstat_uvel_mean            =  -1.0385758713084E-07
(PID.TID 0000.0001) %MON dynstat_uvel_sd              =   2.0485471502680E-03
(PID.TID 0000.0001) %MON dynstat_uvel_del2            =   3.2061320871396E-06
(PID.TID 0000.0001) %MON dynstat_vvel_max             =   4.1670348988837E-02
(PID.TID 0000.0001) %MON dynstat_vvel_min             =  -2.4695955913241E-02
(PID.TID 0000.0001) %MON dynstat_vvel_mean            =   1.5331235282129E-05
(PID.TID 0000.0001) %MON dynstat_vvel_sd              =   1.0594451084945E-03
(PID.TID 0000.0001) %MON dynstat_vvel_del2            =   2.1989674511102E-06
(PID.TID 0000.0001) %MON dynstat_wvel_max             =   2.3427729540116E-03
(PID.TID 0000.0001) %MON dynstat_wvel_min             =  -2.3011362362752E-03
(PID.TID 0000.0001) %MON dynstat_wvel_mean            =   7.5364260344687E-09
(PID.TID 0000.0001) %MON dynstat_wvel_sd              =   3.9226594301732E-05
(PID.TID 0000.0001) %MON dynstat_wvel_del2            =   1.5352708191784E-07
(PID.TID 0000.0001) %MON dynstat_theta_max            =   1.2000000000000E+00
(PID.TID 0000.0001) %MON dynstat_theta_min            =  -1.0000000000000E+00
(PID.TID 0000.0001) %MON dynstat_theta_mean           =   5.6810366248160E-01
(PID.TID 0000.0001) %MON dynstat_theta_sd             =   8.6805110725261E-01
(PID.TID 0000.0001) %MON dynstat_theta_del2           =   6.8936406504832E-06
(PID.TID 0000.0001) %MON dynstat_salt_max             =   3.4700000000000E+01
(PID.TID 0000.0001) %MON dynstat_salt_min             =   3.4000000000000E+01
(PID.TID 0000.0001) %MON dynstat_salt_mean            =   3.4498855463327E+01
(PID.TID 0000.0001) %MON dynstat_salt_sd              =   2.7616345130137E-01
(PID.TID 0000.0001) %MON dynstat_salt_del2            =   2.7332931779567E-06
(PID.TID 0000.0001) %MON advcfl_uvel_max              =   6.9061181410908E-03
(PID.TID 0000.0001) %MON advcfl_vvel_max              =   4.1670348988837E-03
(PID.TID 0000.0001) %MON advcfl_wvel_max              =   1.1713864770058E-02
(PID.TID 0000.0001) %MON advcfl_W_hf_max              =   1.1713864770058E-02
(PID.TID 0000.0001) %MON pe_b_mean                    =  -8.2963835157535E-01
(PID.TID 0000.0001) %MON ke_max                       =   2.1335993915626E-03
(PID.TID 0000.0001) %MON ke_mean                      =   2.6179823316280E-06
(PID.TID 0000.0001) %MON ke_vol                       =   4.2724647217621E+12
(PID.TID 0000.0001) // =======================================================
(PID.TID 0000.0001) // End MONITOR dynamic field statistics
(PID.TID 0000.0001) // =======================================================
(PID.TID 0000.0001) // =======================================================
(PID.TID 0000.0001) // Begin OBCS MONITOR field statistics
(PID.TID 0000.0001) // =======================================================
(PID.TID 0000.0001) %MON obc_N_vVel_max               =   1.5005531296707E-05
(PID.TID 0000.0001) %MON obc_N_vVel_min               =   1.5005531296706E-05
(PID.TID 0000.0001) %MON obc_N_vVel_mean              =   1.5005531296706E-05
(PID.TID 0000.0001) %MON obc_N_vVel_sd                =   4.0194366942305E-12
(PID.TID 0000.0001) %MON obc_N_vVel_Int               =   9.9036506558260E+02
(PID.TID 0000.0001) // =======================================================
(PID.TID 0000.0001) // End OBCS MONITOR field statistics
(PID.TID 0000.0001) // =======================================================
 cg2d: Sum(rhs),rhsMax =   4.50809582890134E+00  2.99971088428583E+02
(PID.TID 0000.0001)      cg2d_init_res =   1.23308554976331E-05
(PID.TID 0000.0001)      cg2d_iters(min,last) =      -1      85
(PID.TID 0000.0001)      cg2d_last_res =   8.98845766779193E-12
(PID.TID 0000.0001) // =======================================================
(PID.TID 0000.0001) // Begin MONITOR dynamic field statistics
(PID.TID 0000.0001) // =======================================================
(PID.TID 0000.0001) %MON time_tsnumber                =                  1535
(PID.TID 0000.0001) %MON time_secondsf                =   1.5350000000000E+05
(PID.TID 0000.0001) %MON dynstat_eta_max              =   5.8045874286791E+00
(PID.TID 0000.0001) %MON dynstat_eta_min              =  -1.4195813457051E+01
(PID.TID 0000.0001) %MON dynstat_eta_mean             =  -2.5042563195109E+00
(PID.TID 0000.0001) %MON dynstat_eta_sd               =   4.9502195383867E+00
(PID.TID 0000.0001) %MON dynstat_eta_del2             =   2.0717311251585E-01
(PID.TID 0000.0001) %MON dynstat_uvel_max             =   1.5715033562810E-02
(PID.TID 0000.0001) %MON dynstat_uvel_min             =  -6.9181396554472E-02
(PID.TID 0000.0001) %MON dynstat_uvel_mean            =  -1.0377785558396E-07
(PID.TID 0000.0001) %MON dynstat_uvel_sd              =   2.0527986386301E-03
(PID.TID 0000.0001) %MON dynstat_uvel_del2            =   3.2138237277933E-06
(PID.TID 0000.0001) %MON dynstat_vvel_max             =   4.1715154117168E-02
(PID.TID 0000.0001) %MON dynstat_vvel_min             =  -2.4751008940081E-02
(PID.TID 0000.0001) %MON dynstat_vvel_mean            =   1.5329014301866E-05
(PID.TID 0000.0001) %MON dynstat_vvel_sd              =   1.0614380875873E-03
(PID.TID 0000.0001) %MON dynstat_vvel_del2            =   2.2031376338908E-06
(PID.TID 0000.0001) %MON dynstat_wvel_max             =   2.3457057732123E-03
(PID.TID 0000.0001) %MON dynstat_wvel_min             =  -2.3043183364692E-03
(PID.TID 0000.0001) %MON dynstat_wvel_mean            =   7.5268158854258E-09
(PID.TID 0000.0001) %MON dynstat_wvel_sd              =   3.9274521034903E-05
(PID.TID 0000.0001) %MON dynstat_wvel_del2            =   1.5372057253930E-07
(PID.TID 0000.0001) %MON dynstat_theta_max            =   1.2000000000000E+00
(PID.TID 0000.0001) %MON dynstat_theta_min            =  -1.0000000000000E+00
(PID.TID 0000.0001) %MON dynstat_theta_mean           =   5.6810171360351E-01
(PID.TID 0000.0001) %MON dynstat_theta_sd             =   8.6805011914018E-01
(PID.TID 0000.0001) %MON dynstat_theta_del2           =   6.9059926713632E-06
(PID.TID 0000.0001) %MON dynstat_salt_max             =   3.4700000000000E+01
(PID.TID 0000.0001) %MON dynstat_salt_min             =   3.4000000000000E+01
(PID.TID 0000.0001) %MON dynstat_salt_mean            =   3.4498854683131E+01
(PID.TID 0000.0001) %MON dynstat_salt_sd              =   2.7616307618397E-01
(PID.TID 0000.0001) %MON dynstat_salt_del2            =   2.7382003585826E-06
(PID.TID 0000.0001) %MON advcfl_uvel_max              =   6.9181396554472E-03
(PID.TID 0000.0001) %MON advcfl_vvel_max              =   4.1715154117168E-03
(PID.TID 0000.0001) %MON advcfl_wvel_max              =   1.1728528866061E-02
(PID.TID 0000.0001) %MON advcfl_W_hf_max              =   1.1728528866061E-02
(PID.TID 0000.0001) %MON pe_b_mean                    =  -8.2963758276967E-01
(PID.TID 0000.0001) %MON ke_max                       =   2.1426432468160E-03
(PID.TID 0000.0001) %MON ke_mean                      =   2.6286412388876E-06
(PID.TID 0000.0001) %MON ke_vol                       =   4.2724647195265E+12
(PID.TID 0000.0001) // =======================================================
(PID.TID 0000.0001) // End MONITOR dynamic field statistics
(PID.TID 0000.0001) // =======================================================
(PID.TID 0000.0001) // =======================================================
(PID.TID 0000.0001) // Begin OBCS MONITOR field statistics
(PID.TID 0000.0001) // =======================================================
(PID.TID 0000.0001) %MON obc_N_vVel_max               =   1.5004137529073E-05
(PID.TID 0000.0001) %MON obc_N_vVel_min               =   1.5004137529073E-05
(PID.TID 0000.0001) %MON obc_N_vVel_mean              =   1.5004137529073E-05
(PID.TID 0000.0001) %MON obc_N_vVel_sd                =   1.9091266521794E-12
(PID.TID 0000.0001) %MON obc_N_vVel_Int               =   9.9027307691883E+02
(PID.TID 0000.0001) // =======================================================
(PID.TID 0000.0001) // End OBCS MONITOR field statistics
(PID.TID 0000.0001) // =======================================================
 cg2d: Sum(rhs),rhsMax =   4.50809521240648E+00  2.99971167510299E+02
(PID.TID 0000.0001)      cg2d_init_res =   1.23452488223485E-05
(PID.TID 0000.0001)      cg2d_iters(min,last) =      -1      85
(PID.TID 0000.0001)      cg2d_last_res =   8.99120472741046E-12
(PID.TID 0000.0001) // =======================================================
(PID.TID 0000.0001) // Begin MONITOR dynamic field statistics
(PID.TID 0000.0001) // =======================================================
(PID.TID 0000.0001) %MON time_tsnumber                =                  1536
(PID.TID 0000.0001) %MON time_secondsf                =   1.5360000000000E+05
(PID.TID 0000.0001) %MON dynstat_eta_max              =   5.8046281184171E+00
(PID.TID 0000.0001) %MON dynstat_eta_min              =  -1.4195843388472E+01
(PID.TID 0000.0001) %MON dynstat_eta_mean             =  -2.5042566372466E+00
(PID.TID 0000.0001) %MON dynstat_eta_sd               =   4.9502203285404E+00
(PID.TID 0000.0001) %MON dynstat_eta_del2             =   2.0717317536457E-01
(PID.TID 0000.0001) %MON dynstat_uvel_max             =   1.5748116680603E-02
(PID.TID 0000.0001) %MON dynstat_uvel_min             =  -6.9301599367768E-02
(PID.TID 0000.0001) %MON dynstat_uvel_mean            =  -1.0370175871835E-07
(PID.TID 0000.0001) %MON dynstat_uvel_sd              =   2.0570563199026E-03
(PID.TID 0000.0001) %MON dynstat_uvel_del2            =   3.2215322481901E-06
(PID.TID 0000.0001) %MON dynstat_vvel_max             =   4.1759908209519E-02
(PID.TID 0000.0001) %MON dynstat_vvel_min             =  -2.4806132347408E-02
(PID.TID 0000.0001) %MON dynstat_vvel_mean            =   1.5325847803344E-05
(PID.TID 0000.0001) %MON dynstat_vvel_sd              =   1.0634345143651E-03
(PID.TID 0000.0001) %MON dynstat_vvel_del2            =   2.2073157293407E-06
(PID.TID 0000.0001) %MON dynstat_wvel_max             =   2.3486354744606E-03
(PID.TID 0000.0001) %MON dynstat_wvel_min             =  -2.3074972775016E-03
(PID.TID 0000.0001) %MON dynstat_wvel_mean            =   7.5165978963665E-09
(PID.TID 0000.0001) %MON dynstat_wvel_sd              =   3.9323575593622E-05
(PID.TID 0000.0001) %MON dynstat_wvel_del2            =   1.5391520050908E-07
(PID.TID 0000.0001) %MON dynstat_theta_max            =   1.2000000000000E+00
(PID.TID 0000.0001) %MON dynstat_theta_min            =  -1.0000000000000E+00
(PID.TID 0000.0001) %MON dynstat_theta_mean           =   5.6809976142045E-01
(PID.TID 0000.0001) %MON dynstat_theta_sd             =   8.6804912970614E-01
(PID.TID 0000.0001) %MON dynstat_theta_del2           =   6.9183617809359E-06
(PID.TID 0000.0001) %MON dynstat_salt_max             =   3.4700000000000E+01
(PID.TID 0000.0001) %MON dynstat_salt_min             =   3.4000000000000E+01
(PID.TID 0000.0001) %MON dynstat_salt_mean            =   3.4498853901616E+01
(PID.TID 0000.0001) %MON dynstat_salt_sd              =   2.7616270059098E-01
(PID.TID 0000.0001) %MON dynstat_salt_del2            =   2.7431139507520E-06
(PID.TID 0000.0001) %MON advcfl_uvel_max              =   6.9301599367768E-03
(PID.TID 0000.0001) %MON advcfl_vvel_max              =   4.1759908209519E-03
(PID.TID 0000.0001) %MON advcfl_wvel_max              =   1.1743177372303E-02
(PID.TID 0000.0001) %MON advcfl_W_hf_max              =   1.1743177372303E-02
(PID.TID 0000.0001) %MON pe_b_mean                    =  -8.2963680358545E-01
(PID.TID 0000.0001) %MON ke_max                       =   2.1517138050496E-03
(PID.TID 0000.0001) %MON ke_mean                      =   2.6393379732724E-06
(PID.TID 0000.0001) %MON ke_vol                       =   4.2724647174621E+12
(PID.TID 0000.0001) // =======================================================
(PID.TID 0000.0001) // End MONITOR dynamic field statistics
(PID.TID 0000.0001) // =======================================================
(PID.TID 0000.0001) // =======================================================
(PID.TID 0000.0001) // Begin OBCS MONITOR field statistics
(PID.TID 0000.0001) // =======================================================
(PID.TID 0000.0001) %MON obc_N_vVel_max               =   1.5001880235027E-05
(PID.TID 0000.0001) %MON obc_N_vVel_min               =   1.5001880235026E-05
(PID.TID 0000.0001) %MON obc_N_vVel_mean              =   1.5001880235027E-05
(PID.TID 0000.0001) %MON obc_N_vVel_sd                =  -2.0550268343114E-23
(PID.TID 0000.0001) %MON obc_N_vVel_Int               =   9.9012409551177E+02
(PID.TID 0000.0001) // =======================================================
(PID.TID 0000.0001) // End OBCS MONITOR field statistics
(PID.TID 0000.0001) // =======================================================
 cg2d: Sum(rhs),rhsMax =   4.50809454098147E+00  2.99971246567857E+02
(PID.TID 0000.0001)      cg2d_init_res =   1.23597281803981E-05
(PID.TID 0000.0001)      cg2d_iters(min,last) =      -1      85
(PID.TID 0000.0001)      cg2d_last_res =   8.99423404488324E-12
(PID.TID 0000.0001) // =======================================================
(PID.TID 0000.0001) // Begin MONITOR dynamic field statistics
(PID.TID 0000.0001) // =======================================================
(PID.TID 0000.0001) %MON time_tsnumber                =                  1537
(PID.TID 0000.0001) %MON time_secondsf                =   1.5370000000000E+05
(PID.TID 0000.0001) %MON dynstat_eta_max              =   5.8046689333634E+00
(PID.TID 0000.0001) %MON dynstat_eta_min              =  -1.4195873313793E+01
(PID.TID 0000.0001) %MON dynstat_eta_mean             =  -2.5042569242666E+00
(PID.TID 0000.0001) %MON dynstat_eta_sd               =   4.9502211089172E+00
(PID.TID 0000.0001) %MON dynstat_eta_del2             =   2.0717323829733E-01
(PID.TID 0000.0001) %MON dynstat_uvel_max             =   1.5781247624073E-02
(PID.TID 0000.0001) %MON dynstat_uvel_min             =  -6.9421788994959E-02
(PID.TID 0000.0001) %MON dynstat_uvel_mean            =  -1.0363033154378E-07
(PID.TID 0000.0001) %MON dynstat_uvel_sd              =   2.0613201877446E-03
(PID.TID 0000.0001) %MON dynstat_uvel_del2            =   3.2292576668696E-06
(PID.TID 0000.0001) %MON dynstat_vvel_max             =   4.1804611099622E-02
(PID.TID 0000.0001) %MON dynstat_vvel_min             =  -2.4861325769104E-02
(PID.TID 0000.0001) %MON dynstat_vvel_mean            =   1.5321833441672E-05
(PID.TID 0000.0001) %MON dynstat_vvel_sd              =   1.0654345964247E-03
(PID.TID 0000.0001) %MON dynstat_vvel_del2            =   2.2115022208010E-06
(PID.TID 0000.0001) %MON dynstat_wvel_max             =   2.3515620384566E-03
(PID.TID 0000.0001) %MON dynstat_wvel_min             =  -2.3106729790217E-03
(PID.TID 0000.0001) %MON dynstat_wvel_mean            =   7.5060455054634E-09
(PID.TID 0000.0001) %MON dynstat_wvel_sd              =   3.9374418227281E-05
(PID.TID 0000.0001) %MON dynstat_wvel_del2            =   1.5411215354189E-07
(PID.TID 0000.0001) %MON dynstat_theta_max            =   1.2000000000000E+00
(PID.TID 0000.0001) %MON dynstat_theta_min            =  -1.0000000000000E+00
(PID.TID 0000.0001) %MON dynstat_theta_mean           =   5.6809780592939E-01
(PID.TID 0000.0001) %MON dynstat_theta_sd             =   8.6804813894810E-01
(PID.TID 0000.0001) %MON dynstat_theta_del2           =   6.9307466083024E-06
(PID.TID 0000.0001) %MON dynstat_salt_max             =   3.4700000000000E+01
(PID.TID 0000.0001) %MON dynstat_salt_min             =   3.4000000000000E+01
(PID.TID 0000.0001) %MON dynstat_salt_mean            =   3.4498853118779E+01
(PID.TID 0000.0001) %MON dynstat_salt_sd              =   2.7616232452184E-01
(PID.TID 0000.0001) %MON dynstat_salt_del2            =   2.7480337892580E-06
(PID.TID 0000.0001) %MON advcfl_uvel_max              =   6.9421788994959E-03
(PID.TID 0000.0001) %MON advcfl_vvel_max              =   4.1804611099622E-03
(PID.TID 0000.0001) %MON advcfl_wvel_max              =   1.1757810192283E-02
(PID.TID 0000.0001) %MON advcfl_W_hf_max              =   1.1757810192283E-02
(PID.TID 0000.0001) %MON pe_b_mean                    =  -8.2963601380595E-01
(PID.TID 0000.0001) %MON ke_max                       =   2.1608110641886E-03
(PID.TID 0000.0001) %MON ke_mean                      =   2.6500728428112E-06
(PID.TID 0000.0001) %MON ke_vol                       =   4.2724647155748E+12
(PID.TID 0000.0001) // =======================================================
(PID.TID 0000.0001) // End MONITOR dynamic field statistics
(PID.TID 0000.0001) // =======================================================
(PID.TID 0000.0001) // =======================================================
(PID.TID 0000.0001) // Begin OBCS MONITOR field statistics
(PID.TID 0000.0001) // =======================================================
(PID.TID 0000.0001) %MON obc_N_vVel_max               =   1.4998832092544E-05
(PID.TID 0000.0001) %MON obc_N_vVel_min               =   1.4998832092544E-05
(PID.TID 0000.0001) %MON obc_N_vVel_mean              =   1.4998832092544E-05
(PID.TID 0000.0001) %MON obc_N_vVel_sd                =  -4.9113848870336E-25
(PID.TID 0000.0001) %MON obc_N_vVel_Int               =   9.8992291810790E+02
(PID.TID 0000.0001) // =======================================================
(PID.TID 0000.0001) // End OBCS MONITOR field statistics
(PID.TID 0000.0001) // =======================================================
 cg2d: Sum(rhs),rhsMax =   4.50809381311047E+00  2.99971325605461E+02
(PID.TID 0000.0001)      cg2d_init_res =   1.23743619427555E-05
(PID.TID 0000.0001)      cg2d_iters(min,last) =      -1      85
(PID.TID 0000.0001)      cg2d_last_res =   8.99760502086451E-12
(PID.TID 0000.0001) // =======================================================
(PID.TID 0000.0001) // Begin MONITOR dynamic field statistics
(PID.TID 0000.0001) // =======================================================
(PID.TID 0000.0001) %MON time_tsnumber                =                  1538
(PID.TID 0000.0001) %MON time_secondsf                =   1.5380000000000E+05
(PID.TID 0000.0001) %MON dynstat_eta_max              =   5.8047098750158E+00
(PID.TID 0000.0001) %MON dynstat_eta_min              =  -1.4195903232484E+01
(PID.TID 0000.0001) %MON dynstat_eta_mean             =  -2.5042571797639E+00
(PID.TID 0000.0001) %MON dynstat_eta_sd               =   4.9502218793485E+00
(PID.TID 0000.0001) %MON dynstat_eta_del2             =   2.0717330131430E-01
(PID.TID 0000.0001) %MON dynstat_uvel_max             =   1.5814426413822E-02
(PID.TID 0000.0001) %MON dynstat_uvel_min             =  -6.9541964589145E-02
(PID.TID 0000.0001) %MON dynstat_uvel_mean            =  -1.0356450218384E-07
(PID.TID 0000.0001) %MON dynstat_uvel_sd              =   2.0655902358317E-03
(PID.TID 0000.0001) %MON dynstat_uvel_del2            =   3.2370000020527E-06
(PID.TID 0000.0001) %MON dynstat_vvel_max             =   4.1849262625240E-02
(PID.TID 0000.0001) %MON dynstat_vvel_min             =  -2.4916588830283E-02
(PID.TID 0000.0001) %MON dynstat_vvel_mean            =   1.5317086733809E-05
(PID.TID 0000.0001) %MON dynstat_vvel_sd              =   1.0674385211928E-03
(PID.TID 0000.0001) %MON dynstat_vvel_del2            =   2.2156975336588E-06
(PID.TID 0000.0001) %MON dynstat_wvel_max             =   2.3544854459164E-03
(PID.TID 0000.0001) %MON dynstat_wvel_min             =  -2.3138453598189E-03
(PID.TID 0000.0001) %MON dynstat_wvel_mean            =   7.4954367674093E-09
(PID.TID 0000.0001) %MON dynstat_wvel_sd              =   3.9427637970495E-05
(PID.TID 0000.0001) %MON dynstat_wvel_del2            =   1.5431251551946E-07
(PID.TID 0000.0001) %MON dynstat_theta_max            =   1.2000000000000E+00
(PID.TID 0000.0001) %MON dynstat_theta_min            =  -1.0000000000000E+00
(PID.TID 0000.0001) %MON dynstat_theta_mean           =   5.6809584712769E-01
(PID.TID 0000.0001) %MON dynstat_theta_sd             =   8.6804714686472E-01
(PID.TID 0000.0001) %MON dynstat_theta_del2           =   6.9431462558615E-06
(PID.TID 0000.0001) %MON dynstat_salt_max             =   3.4700000000000E+01
(PID.TID 0000.0001) %MON dynstat_salt_min             =   3.4000000000000E+01
(PID.TID 0000.0001) %MON dynstat_salt_mean            =   3.4498852334620E+01
(PID.TID 0000.0001) %MON dynstat_salt_sd              =   2.7616194797645E-01
(PID.TID 0000.0001) %MON dynstat_salt_del2            =   2.7529600313711E-06
(PID.TID 0000.0001) %MON advcfl_uvel_max              =   6.9541964589145E-03
(PID.TID 0000.0001) %MON advcfl_vvel_max              =   4.1849262625240E-03
(PID.TID 0000.0001) %MON advcfl_wvel_max              =   1.1772427229582E-02
(PID.TID 0000.0001) %MON advcfl_W_hf_max              =   1.1772427229582E-02
(PID.TID 0000.0001) %MON pe_b_mean                    =  -8.2963521324507E-01
(PID.TID 0000.0001) %MON ke_max                       =   2.1699350218971E-03
(PID.TID 0000.0001) %MON ke_mean                      =   2.6608461360155E-06
(PID.TID 0000.0001) %MON ke_vol                       =   4.2724647138699E+12
(PID.TID 0000.0001) // =======================================================
(PID.TID 0000.0001) // End MONITOR dynamic field statistics
(PID.TID 0000.0001) // =======================================================
(PID.TID 0000.0001) // =======================================================
(PID.TID 0000.0001) // Begin OBCS MONITOR field statistics
(PID.TID 0000.0001) // =======================================================
(PID.TID 0000.0001) %MON obc_N_vVel_max               =   1.4995082610458E-05
(PID.TID 0000.0001) %MON obc_N_vVel_min               =   1.4995082610458E-05
(PID.TID 0000.0001) %MON obc_N_vVel_mean              =   1.4995082610458E-05
(PID.TID 0000.0001) %MON obc_N_vVel_sd                =   4.1273176204121E-12
(PID.TID 0000.0001) %MON obc_N_vVel_Int               =   9.8967545229021E+02
(PID.TID 0000.0001) // =======================================================
(PID.TID 0000.0001) // End OBCS MONITOR field statistics
(PID.TID 0000.0001) // =======================================================
 cg2d: Sum(rhs),rhsMax =   4.50809302745528E+00  2.99971404629360E+02
(PID.TID 0000.0001)      cg2d_init_res =   1.23892146264356E-05
(PID.TID 0000.0001)      cg2d_iters(min,last) =      -1      85
(PID.TID 0000.0001)      cg2d_last_res =   9.00135922005609E-12
(PID.TID 0000.0001) // =======================================================
(PID.TID 0000.0001) // Begin MONITOR dynamic field statistics
(PID.TID 0000.0001) // =======================================================
(PID.TID 0000.0001) %MON time_tsnumber                =                  1539
(PID.TID 0000.0001) %MON time_secondsf                =   1.5390000000000E+05
(PID.TID 0000.0001) %MON dynstat_eta_max              =   5.8047509446113E+00
(PID.TID 0000.0001) %MON dynstat_eta_min              =  -1.4195933144152E+01
(PID.TID 0000.0001) %MON dynstat_eta_mean             =  -2.5042574030474E+00
(PID.TID 0000.0001) %MON dynstat_eta_sd               =   4.9502226397182E+00
(PID.TID 0000.0001) %MON dynstat_eta_del2             =   2.0717336441591E-01
(PID.TID 0000.0001) %MON dynstat_uvel_max             =   1.5847653069860E-02
(PID.TID 0000.0001) %MON dynstat_uvel_min             =  -6.9662125311849E-02
(PID.TID 0000.0001) %MON dynstat_uvel_mean            =  -1.0350507507872E-07
(PID.TID 0000.0001) %MON dynstat_uvel_sd              =   2.0698664577924E-03
(PID.TID 0000.0001) %MON dynstat_uvel_del2            =   3.2447592698305E-06
(PID.TID 0000.0001) %MON dynstat_vvel_max             =   4.1893862627679E-02
(PID.TID 0000.0001) %MON dynstat_vvel_min             =  -2.4971921148369E-02
(PID.TID 0000.0001) %MON dynstat_vvel_mean            =   1.5311738319926E-05
(PID.TID 0000.0001) %MON dynstat_vvel_sd              =   1.0694464497996E-03
(PID.TID 0000.0001) %MON dynstat_vvel_del2            =   2.2199020289661E-06
(PID.TID 0000.0001) %MON dynstat_wvel_max             =   2.3574056775977E-03
(PID.TID 0000.0001) %MON dynstat_wvel_min             =  -2.3170143376825E-03
(PID.TID 0000.0001) %MON dynstat_wvel_mean            =   7.4850478337999E-09
(PID.TID 0000.0001) %MON dynstat_wvel_sd              =   3.9483734727781E-05
(PID.TID 0000.0001) %MON dynstat_wvel_del2            =   1.5451725725950E-07
(PID.TID 0000.0001) %MON dynstat_theta_max            =   1.2000000000000E+00
(PID.TID 0000.0001) %MON dynstat_theta_min            =  -1.0000000000000E+00
(PID.TID 0000.0001) %MON dynstat_theta_mean           =   5.6809388501294E-01
(PID.TID 0000.0001) %MON dynstat_theta_sd             =   8.6804615345514E-01
(PID.TID 0000.0001) %MON dynstat_theta_del2           =   6.9555616797196E-06
(PID.TID 0000.0001) %MON dynstat_salt_max             =   3.4700000000000E+01
(PID.TID 0000.0001) %MON dynstat_salt_min             =   3.4000000000000E+01
(PID.TID 0000.0001) %MON dynstat_salt_mean            =   3.4498851549138E+01
(PID.TID 0000.0001) %MON dynstat_salt_sd              =   2.7616157095428E-01
(PID.TID 0000.0001) %MON dynstat_salt_del2            =   2.7578921123362E-06
(PID.TID 0000.0001) %MON advcfl_uvel_max              =   6.9662125311849E-03
(PID.TID 0000.0001) %MON advcfl_vvel_max              =   4.1893862627679E-03
(PID.TID 0000.0001) %MON advcfl_wvel_max              =   1.1787028387989E-02
(PID.TID 0000.0001) %MON advcfl_W_hf_max              =   1.1787028387989E-02
(PID.TID 0000.0001) %MON pe_b_mean                    =  -8.2963440175067E-01
(PID.TID 0000.0001) %MON ke_max                       =   2.1790856755633E-03
(PID.TID 0000.0001) %MON ke_mean                      =   2.6716581149633E-06
(PID.TID 0000.0001) %MON ke_vol                       =   4.2724647123522E+12
(PID.TID 0000.0001) // =======================================================
(PID.TID 0000.0001) // End MONITOR dynamic field statistics
(PID.TID 0000.0001) // =======================================================
(PID.TID 0000.0001) // =======================================================
(PID.TID 0000.0001) // Begin OBCS MONITOR field statistics
(PID.TID 0000.0001) // =======================================================
(PID.TID 0000.0001) %MON obc_N_vVel_max               =   1.4990735990830E-05
(PID.TID 0000.0001) %MON obc_N_vVel_min               =   1.4990735990830E-05
(PID.TID 0000.0001) %MON obc_N_vVel_mean              =   1.4990735990830E-05
(PID.TID 0000.0001) %MON obc_N_vVel_sd                =   3.6803644562130E-12
(PID.TID 0000.0001) %MON obc_N_vVel_Int               =   9.8938857539478E+02
(PID.TID 0000.0001) // =======================================================
(PID.TID 0000.0001) // End OBCS MONITOR field statistics
(PID.TID 0000.0001) // =======================================================
 cg2d: Sum(rhs),rhsMax =   4.50809218289021E+00  2.99971483647160E+02
(PID.TID 0000.0001)      cg2d_init_res =   1.24042652043706E-05
(PID.TID 0000.0001)      cg2d_iters(min,last) =      -1      85
(PID.TID 0000.0001)      cg2d_last_res =   9.00565606612210E-12
(PID.TID 0000.0001) // =======================================================
(PID.TID 0000.0001) // Begin MONITOR dynamic field statistics
(PID.TID 0000.0001) // =======================================================
(PID.TID 0000.0001) %MON time_tsnumber                =                  1540
(PID.TID 0000.0001) %MON time_secondsf                =   1.5400000000000E+05
(PID.TID 0000.0001) %MON dynstat_eta_max              =   5.8047921430964E+00
(PID.TID 0000.0001) %MON dynstat_eta_min              =  -1.4195963048566E+01
(PID.TID 0000.0001) %MON dynstat_eta_mean             =  -2.5042575935551E+00
(PID.TID 0000.0001) %MON dynstat_eta_sd               =   4.9502233899485E+00
(PID.TID 0000.0001) %MON dynstat_eta_del2             =   2.0717342760178E-01
(PID.TID 0000.0001) %MON dynstat_uvel_max             =   1.5880927611736E-02
(PID.TID 0000.0001) %MON dynstat_uvel_min             =  -6.9782270332906E-02
(PID.TID 0000.0001) %MON dynstat_uvel_mean            =  -1.0345268352141E-07
(PID.TID 0000.0001) %MON dynstat_uvel_sd              =   2.0741488474240E-03
(PID.TID 0000.0001) %MON dynstat_uvel_del2            =   3.2525354886709E-06
(PID.TID 0000.0001) %MON dynstat_vvel_max             =   4.1938410951173E-02
(PID.TID 0000.0001) %MON dynstat_vvel_min             =  -2.5027322333262E-02
(PID.TID 0000.0001) %MON dynstat_vvel_mean            =   1.5305930948477E-05
(PID.TID 0000.0001) %MON dynstat_vvel_sd              =   1.0714585122378E-03
(PID.TID 0000.0001) %MON dynstat_vvel_del2            =   2.2241159914770E-06
(PID.TID 0000.0001) %MON dynstat_wvel_max             =   2.3603227142800E-03
(PID.TID 0000.0001) %MON dynstat_wvel_min             =  -2.3201798294072E-03
(PID.TID 0000.0001) %MON dynstat_wvel_mean            =   7.4751492504882E-09
(PID.TID 0000.0001) %MON dynstat_wvel_sd              =   3.9543104780353E-05
(PID.TID 0000.0001) %MON dynstat_wvel_del2            =   1.5472723272425E-07
(PID.TID 0000.0001) %MON dynstat_theta_max            =   1.2000000000000E+00
(PID.TID 0000.0001) %MON dynstat_theta_min            =  -1.0000000000000E+00
(PID.TID 0000.0001) %MON dynstat_theta_mean           =   5.6809191958300E-01
(PID.TID 0000.0001) %MON dynstat_theta_sd             =   8.6804515871508E-01
(PID.TID 0000.0001) %MON dynstat_theta_del2           =   6.9679903784901E-06
(PID.TID 0000.0001) %MON dynstat_salt_max             =   3.4700000000000E+01
(PID.TID 0000.0001) %MON dynstat_salt_min             =   3.4000000000000E+01
(PID.TID 0000.0001) %MON dynstat_salt_mean            =   3.4498850762332E+01
(PID.TID 0000.0001) %MON dynstat_salt_sd              =   2.7616119345457E-01
(PID.TID 0000.0001) %MON dynstat_salt_del2            =   2.7628301679909E-06
(PID.TID 0000.0001) %MON advcfl_uvel_max              =   6.9782270332906E-03
(PID.TID 0000.0001) %MON advcfl_vvel_max              =   4.1938410951173E-03
(PID.TID 0000.0001) %MON advcfl_wvel_max              =   1.1801613571400E-02
(PID.TID 0000.0001) %MON advcfl_W_hf_max              =   1.1801613571400E-02
(PID.TID 0000.0001) %MON pe_b_mean                    =  -8.2963357920744E-01
(PID.TID 0000.0001) %MON ke_max                       =   2.1882630222925E-03
(PID.TID 0000.0001) %MON ke_mean                      =   2.6825090102439E-06
(PID.TID 0000.0001) %MON ke_vol                       =   4.2724647110259E+12
(PID.TID 0000.0001) // =======================================================
(PID.TID 0000.0001) // End MONITOR dynamic field statistics
(PID.TID 0000.0001) // =======================================================
(PID.TID 0000.0001) // =======================================================
(PID.TID 0000.0001) // Begin OBCS MONITOR field statistics
(PID.TID 0000.0001) // =======================================================
(PID.TID 0000.0001) %MON obc_N_vVel_max               =   1.4985908628774E-05
(PID.TID 0000.0001) %MON obc_N_vVel_min               =   1.4985908628773E-05
(PID.TID 0000.0001) %MON obc_N_vVel_mean              =   1.4985908628773E-05
(PID.TID 0000.0001) %MON obc_N_vVel_sd                =   1.6077746776922E-13
(PID.TID 0000.0001) %MON obc_N_vVel_Int               =   9.8906996949904E+02
(PID.TID 0000.0001) // =======================================================
(PID.TID 0000.0001) // End OBCS MONITOR field statistics
(PID.TID 0000.0001) // =======================================================
 cg2d: Sum(rhs),rhsMax =   4.50809127852049E+00  2.99971562667860E+02
(PID.TID 0000.0001)      cg2d_init_res =   1.24196459594863E-05
(PID.TID 0000.0001)      cg2d_iters(min,last) =      -1      85
(PID.TID 0000.0001)      cg2d_last_res =   9.01048030384717E-12
(PID.TID 0000.0001) // =======================================================
(PID.TID 0000.0001) // Begin MONITOR dynamic field statistics
(PID.TID 0000.0001) // =======================================================
(PID.TID 0000.0001) %MON time_tsnumber                =                  1541
(PID.TID 0000.0001) %MON time_secondsf                =   1.5410000000000E+05
(PID.TID 0000.0001) %MON dynstat_eta_max              =   5.8048334711189E+00
(PID.TID 0000.0001) %MON dynstat_eta_min              =  -1.4195992945640E+01
(PID.TID 0000.0001) %MON dynstat_eta_mean             =  -2.5042577508651E+00
(PID.TID 0000.0001) %MON dynstat_eta_sd               =   4.9502241300307E+00
(PID.TID 0000.0001) %MON dynstat_eta_del2             =   2.0717349087249E-01
(PID.TID 0000.0001) %MON dynstat_uvel_max             =   1.5914250096190E-02
(PID.TID 0000.0001) %MON dynstat_uvel_min             =  -6.9902398830234E-02
(PID.TID 0000.0001) %MON dynstat_uvel_mean            =  -1.0340780460015E-07
(PID.TID 0000.0001) %MON dynstat_uvel_sd              =   2.0784373990064E-03
(PID.TID 0000.0001) %MON dynstat_uvel_del2            =   3.2603286776604E-06
(PID.TID 0000.0001) %MON dynstat_vvel_max             =   4.1982907441982E-02
(PID.TID 0000.0001) %MON dynstat_vvel_min             =  -2.5082791990014E-02
(PID.TID 0000.0001) %MON dynstat_vvel_mean            =   1.5299816140189E-05
(PID.TID 0000.0001) %MON dynstat_vvel_sd              =   1.0734748030713E-03
(PID.TID 0000.0001) %MON dynstat_vvel_del2            =   2.2283396241995E-06
(PID.TID 0000.0001) %MON dynstat_wvel_max             =   2.3632365367953E-03
(PID.TID 0000.0001) %MON dynstat_wvel_min             =  -2.3233416837733E-03
(PID.TID 0000.0001) %MON dynstat_wvel_mean            =   7.4659954633623E-09
(PID.TID 0000.0001) %MON dynstat_wvel_sd              =   3.9606029681502E-05
(PID.TID 0000.0001) %MON dynstat_wvel_del2            =   1.5494317041574E-07
(PID.TID 0000.0001) %MON dynstat_theta_max            =   1.2000000000000E+00
(PID.TID 0000.0001) %MON dynstat_theta_min            =  -1.0000000000000E+00
(PID.TID 0000.0001) %MON dynstat_theta_mean           =   5.6808995083596E-01
(PID.TID 0000.0001) %MON dynstat_theta_sd             =   8.6804416264058E-01
(PID.TID 0000.0001) %MON dynstat_theta_del2           =   6.9804315682013E-06
(PID.TID 0000.0001) %MON dynstat_salt_max             =   3.4700000000000E+01
(PID.TID 0000.0001) %MON dynstat_salt_min             =   3.4000000000000E+01
(PID.TID 0000.0001) %MON dynstat_salt_mean            =   3.4498849974200E+01
(PID.TID 0000.0001) %MON dynstat_salt_sd              =   2.7616081547474E-01
(PID.TID 0000.0001) %MON dynstat_salt_del2            =   2.7677744216275E-06
(PID.TID 0000.0001) %MON advcfl_uvel_max              =   6.9902398830234E-03
(PID.TID 0000.0001) %MON advcfl_vvel_max              =   4.1982907441982E-03
(PID.TID 0000.0001) %MON advcfl_wvel_max              =   1.1816182683976E-02
(PID.TID 0000.0001) %MON advcfl_W_hf_max              =   1.1816182683976E-02
(PID.TID 0000.0001) %MON pe_b_mean                    =  -8.2963274553883E-01
(PID.TID 0000.0001) %MON ke_max                       =   2.1974670589087E-03
(PID.TID 0000.0001) %MON ke_mean                      =   2.6933990166365E-06
(PID.TID 0000.0001) %MON ke_vol                       =   4.2724647098943E+12
(PID.TID 0000.0001) // =======================================================
(PID.TID 0000.0001) // End MONITOR dynamic field statistics
(PID.TID 0000.0001) // =======================================================
(PID.TID 0000.0001) // =======================================================
(PID.TID 0000.0001) // Begin OBCS MONITOR field statistics
(PID.TID 0000.0001) // =======================================================
(PID.TID 0000.0001) %MON obc_N_vVel_max               =   1.4980726473407E-05
(PID.TID 0000.0001) %MON obc_N_vVel_min               =   1.4980726473407E-05
(PID.TID 0000.0001) %MON obc_N_vVel_mean              =   1.4980726473407E-05
(PID.TID 0000.0001) %MON obc_N_vVel_sd                =  -1.5768130426792E-24
(PID.TID 0000.0001) %MON obc_N_vVel_Int               =   9.8872794724489E+02
(PID.TID 0000.0001) // =======================================================
(PID.TID 0000.0001) // End OBCS MONITOR field statistics
(PID.TID 0000.0001) // =======================================================
 cg2d: Sum(rhs),rhsMax =   4.50809031369741E+00  2.99971641701648E+02
(PID.TID 0000.0001)      cg2d_init_res =   1.24353335179390E-05
(PID.TID 0000.0001)      cg2d_iters(min,last) =      -1      85
(PID.TID 0000.0001)      cg2d_last_res =   9.01585267467433E-12
(PID.TID 0000.0001) // =======================================================
(PID.TID 0000.0001) // Begin MONITOR dynamic field statistics
(PID.TID 0000.0001) // =======================================================
(PID.TID 0000.0001) %MON time_tsnumber                =                  1542
(PID.TID 0000.0001) %MON time_secondsf                =   1.5420000000000E+05
(PID.TID 0000.0001) %MON dynstat_eta_max              =   5.8048749290085E+00
(PID.TID 0000.0001) %MON dynstat_eta_min              =  -1.4196022835457E+01
(PID.TID 0000.0001) %MON dynstat_eta_mean             =  -2.5042578747021E+00
(PID.TID 0000.0001) %MON dynstat_eta_sd               =   4.9502248600005E+00
(PID.TID 0000.0001) %MON dynstat_eta_del2             =   2.0717355422826E-01
(PID.TID 0000.0001) %MON dynstat_uvel_max             =   1.5947620620150E-02
(PID.TID 0000.0001) %MON dynstat_uvel_min             =  -7.0022509987878E-02
(PID.TID 0000.0001) %MON dynstat_uvel_mean            =  -1.0337069169386E-07
(PID.TID 0000.0001) %MON dynstat_uvel_sd              =   2.0827321035991E-03
(PID.TID 0000.0001) %MON dynstat_uvel_del2            =   3.2681388577165E-06
(PID.TID 0000.0001) %MON dynstat_vvel_max             =   4.2027351947894E-02
(PID.TID 0000.0001) %MON dynstat_vvel_min             =  -2.5138329724559E-02
(PID.TID 0000.0001) %MON dynstat_vvel_mean            =   1.5293550779407E-05
(PID.TID 0000.0001) %MON dynstat_vvel_sd              =   1.0754953803177E-03
(PID.TID 0000.0001) %MON dynstat_vvel_del2            =   2.2325730734352E-06
(PID.TID 0000.0001) %MON dynstat_wvel_max             =   2.3661471260155E-03
(PID.TID 0000.0001) %MON dynstat_wvel_min             =  -2.3264996833581E-03
(PID.TID 0000.0001) %MON dynstat_wvel_mean            =   7.4578232345617E-09
(PID.TID 0000.0001) %MON dynstat_wvel_sd              =   3.9672668857625E-05
(PID.TID 0000.0001) %MON dynstat_wvel_del2            =   1.5516566935248E-07
(PID.TID 0000.0001) %MON dynstat_theta_max            =   1.2000000000000E+00
(PID.TID 0000.0001) %MON dynstat_theta_min            =  -1.0000000000000E+00
(PID.TID 0000.0001) %MON dynstat_theta_mean           =   5.6808797877006E-01
(PID.TID 0000.0001) %MON dynstat_theta_sd             =   8.6804316522637E-01
(PID.TID 0000.0001) %MON dynstat_theta_del2           =   6.9928852577036E-06
(PID.TID 0000.0001) %MON dynstat_salt_max             =   3.4700000000000E+01
(PID.TID 0000.0001) %MON dynstat_salt_min             =   3.4000000000000E+01
(PID.TID 0000.0001) %MON dynstat_salt_mean            =   3.4498849184743E+01
(PID.TID 0000.0001) %MON dynstat_salt_sd              =   2.7616043701171E-01
(PID.TID 0000.0001) %MON dynstat_salt_del2            =   2.7727246315558E-06
(PID.TID 0000.0001) %MON advcfl_uvel_max              =   7.0022509987878E-03
(PID.TID 0000.0001) %MON advcfl_vvel_max              =   4.2027351947894E-03
(PID.TID 0000.0001) %MON advcfl_wvel_max              =   1.1830735630077E-02
(PID.TID 0000.0001) %MON advcfl_W_hf_max              =   1.1830735630077E-02
(PID.TID 0000.0001) %MON pe_b_mean                    =  -8.2963190070795E-01
(PID.TID 0000.0001) %MON ke_max                       =   2.2066977818187E-03
(PID.TID 0000.0001) %MON ke_mean                      =   2.7043282839532E-06
(PID.TID 0000.0001) %MON ke_vol                       =   4.2724647089599E+12
(PID.TID 0000.0001) // =======================================================
(PID.TID 0000.0001) // End MONITOR dynamic field statistics
(PID.TID 0000.0001) // =======================================================
(PID.TID 0000.0001) // =======================================================
(PID.TID 0000.0001) // Begin OBCS MONITOR field statistics
(PID.TID 0000.0001) // =======================================================
(PID.TID 0000.0001) %MON obc_N_vVel_max               =   1.4975322095112E-05
(PID.TID 0000.0001) %MON obc_N_vVel_min               =   1.4975322095112E-05
(PID.TID 0000.0001) %MON obc_N_vVel_mean              =   1.4975322095112E-05
(PID.TID 0000.0001) %MON obc_N_vVel_sd                =   2.3409552661603E-12
(PID.TID 0000.0001) %MON obc_N_vVel_Int               =   9.8837125827738E+02
(PID.TID 0000.0001) // =======================================================
(PID.TID 0000.0001) // End OBCS MONITOR field statistics
(PID.TID 0000.0001) // =======================================================
 cg2d: Sum(rhs),rhsMax =   4.50808928802930E+00  2.99971720759688E+02
(PID.TID 0000.0001)      cg2d_init_res =   1.24513112774605E-05
(PID.TID 0000.0001)      cg2d_iters(min,last) =      -1      85
(PID.TID 0000.0001)      cg2d_last_res =   9.02183748302589E-12
(PID.TID 0000.0001) // =======================================================
(PID.TID 0000.0001) // Begin MONITOR dynamic field statistics
(PID.TID 0000.0001) // =======================================================
(PID.TID 0000.0001) %MON time_tsnumber                =                  1543
(PID.TID 0000.0001) %MON time_secondsf                =   1.5430000000000E+05
(PID.TID 0000.0001) %MON dynstat_eta_max              =   5.8049165167928E+00
(PID.TID 0000.0001) %MON dynstat_eta_min              =  -1.4196052718230E+01
(PID.TID 0000.0001) %MON dynstat_eta_mean             =  -2.5042579649416E+00
(PID.TID 0000.0001) %MON dynstat_eta_sd               =   4.9502255799348E+00
(PID.TID 0000.0001) %MON dynstat_eta_del2             =   2.0717361766886E-01
(PID.TID 0000.0001) %MON dynstat_uvel_max             =   1.5981039243821E-02
(PID.TID 0000.0001) %MON dynstat_uvel_min             =  -7.0142602996321E-02
(PID.TID 0000.0001) %MON dynstat_uvel_mean            =  -1.0334141518370E-07
(PID.TID 0000.0001) %MON dynstat_uvel_sd              =   2.0870329491666E-03
(PID.TID 0000.0001) %MON dynstat_uvel_del2            =   3.2759660515011E-06
(PID.TID 0000.0001) %MON dynstat_vvel_max             =   4.2071744317345E-02
(PID.TID 0000.0001) %MON dynstat_vvel_min             =  -2.5193935131703E-02
(PID.TID 0000.0001) %MON dynstat_vvel_mean            =   1.5287293605822E-05
(PID.TID 0000.0001) %MON dynstat_vvel_sd              =   1.0775202640083E-03
(PID.TID 0000.0001) %MON dynstat_vvel_del2            =   2.2368164225108E-06
(PID.TID 0000.0001) %MON dynstat_wvel_max             =   2.3690544628688E-03
(PID.TID 0000.0001) %MON dynstat_wvel_min             =  -2.3296536669582E-03
(PID.TID 0000.0001) %MON dynstat_wvel_mean            =   7.4508463689830E-09
(PID.TID 0000.0001) %MON dynstat_wvel_sd              =   3.9743056136193E-05
(PID.TID 0000.0001) %MON dynstat_wvel_del2            =   1.5539518811816E-07
(PID.TID 0000.0001) %MON dynstat_theta_max            =   1.2000000000000E+00
(PID.TID 0000.0001) %MON dynstat_theta_min            =  -1.0000000000000E+00
(PID.TID 0000.0001) %MON dynstat_theta_mean           =   5.6808600338368E-01
(PID.TID 0000.0001) %MON dynstat_theta_sd             =   8.6804216646675E-01
(PID.TID 0000.0001) %MON dynstat_theta_del2           =   7.0053512004336E-06
(PID.TID 0000.0001) %MON dynstat_salt_max             =   3.4700000000000E+01
(PID.TID 0000.0001) %MON dynstat_salt_min             =   3.4000000000000E+01
(PID.TID 0000.0001) %MON dynstat_salt_mean            =   3.4498848393959E+01
(PID.TID 0000.0001) %MON dynstat_salt_sd              =   2.7616005806641E-01
(PID.TID 0000.0001) %MON dynstat_salt_del2            =   2.7776802076728E-06
(PID.TID 0000.0001) %MON advcfl_uvel_max              =   7.0142602996321E-03
(PID.TID 0000.0001) %MON advcfl_vvel_max              =   4.2071744317345E-03
(PID.TID 0000.0001) %MON advcfl_wvel_max              =   1.1845272314344E-02
(PID.TID 0000.0001) %MON advcfl_W_hf_max              =   1.1845272314344E-02
(PID.TID 0000.0001) %MON pe_b_mean                    =  -8.2963104471788E-01
(PID.TID 0000.0001) %MON ke_max                       =   2.2159551870562E-03
(PID.TID 0000.0001) %MON ke_mean                      =   2.7152969152553E-06
(PID.TID 0000.0001) %MON ke_vol                       =   4.2724647082243E+12
(PID.TID 0000.0001) // =======================================================
(PID.TID 0000.0001) // End MONITOR dynamic field statistics
(PID.TID 0000.0001) // =======================================================
(PID.TID 0000.0001) // =======================================================
(PID.TID 0000.0001) // Begin OBCS MONITOR field statistics
(PID.TID 0000.0001) // =======================================================
(PID.TID 0000.0001) %MON obc_N_vVel_max               =   1.4969831677268E-05
(PID.TID 0000.0001) %MON obc_N_vVel_min               =   1.4969831677268E-05
(PID.TID 0000.0001) %MON obc_N_vVel_mean              =   1.4969831677268E-05
(PID.TID 0000.0001) %MON obc_N_vVel_sd                =  -1.1037691298754E-23
(PID.TID 0000.0001) %MON obc_N_vVel_Int               =   9.8800889069969E+02
(PID.TID 0000.0001) // =======================================================
(PID.TID 0000.0001) // End OBCS MONITOR field statistics
(PID.TID 0000.0001) // =======================================================
 cg2d: Sum(rhs),rhsMax =   4.50808820138125E+00  2.99971799853895E+02
(PID.TID 0000.0001)      cg2d_init_res =   1.24675849355593E-05
(PID.TID 0000.0001)      cg2d_iters(min,last) =      -1      85
(PID.TID 0000.0001)      cg2d_last_res =   9.02848403624118E-12
(PID.TID 0000.0001) // =======================================================
(PID.TID 0000.0001) // Begin MONITOR dynamic field statistics
(PID.TID 0000.0001) // =======================================================
(PID.TID 0000.0001) %MON time_tsnumber                =                  1544
(PID.TID 0000.0001) %MON time_secondsf                =   1.5440000000000E+05
(PID.TID 0000.0001) %MON dynstat_eta_max              =   5.8049582341822E+00
(PID.TID 0000.0001) %MON dynstat_eta_min              =  -1.4196082594331E+01
(PID.TID 0000.0001) %MON dynstat_eta_mean             =  -2.5042580216082E+00
(PID.TID 0000.0001) %MON dynstat_eta_sd               =   4.9502262899588E+00
(PID.TID 0000.0001) %MON dynstat_eta_del2             =   2.0717368119429E-01
(PID.TID 0000.0001) %MON dynstat_uvel_max             =   1.6014505987750E-02
(PID.TID 0000.0001) %MON dynstat_uvel_min             =  -7.0262677058317E-02
(PID.TID 0000.0001) %MON dynstat_uvel_mean            =  -1.0331996321417E-07
(PID.TID 0000.0001) %MON dynstat_uvel_sd              =   2.0913399299366E-03
(PID.TID 0000.0001) %MON dynstat_uvel_del2            =   3.2838102792598E-06
(PID.TID 0000.0001) %MON dynstat_vvel_max             =   4.2116084380380E-02
(PID.TID 0000.0001) %MON dynstat_vvel_min             =  -2.5249607784582E-02
(PID.TID 0000.0001) %MON dynstat_vvel_mean            =   1.5281201551175E-05
(PID.TID 0000.0001) %MON dynstat_vvel_sd              =   1.0795494314956E-03
(PID.TID 0000.0001) %MON dynstat_vvel_del2            =   2.2410696203242E-06
(PID.TID 0000.0001) %MON dynstat_wvel_max             =   2.3719582690043E-03
(PID.TID 0000.0001) %MON dynstat_wvel_min             =  -2.3328035286135E-03
(PID.TID 0000.0001) %MON dynstat_wvel_mean            =   7.4452490077526E-09
(PID.TID 0000.0001) %MON dynstat_wvel_sd              =   3.9817100746685E-05
(PID.TID 0000.0001) %MON dynstat_wvel_del2            =   1.5563203000079E-07
(PID.TID 0000.0001) %MON dynstat_theta_max            =   1.2000000000000E+00
(PID.TID 0000.0001) %MON dynstat_theta_min            =  -1.0000000000000E+00
(PID.TID 0000.0001) %MON dynstat_theta_mean           =   5.6808402467504E-01
(PID.TID 0000.0001) %MON dynstat_theta_sd             =   8.6804116635406E-01
(PID.TID 0000.0001) %MON dynstat_theta_del2           =   7.0178293228927E-06
(PID.TID 0000.0001) %MON dynstat_salt_max             =   3.4700000000000E+01
(PID.TID 0000.0001) %MON dynstat_salt_min             =   3.4000000000000E+01
(PID.TID 0000.0001) %MON dynstat_salt_mean            =   3.4498847601847E+01
(PID.TID 0000.0001) %MON dynstat_salt_sd              =   2.7615967863660E-01
(PID.TID 0000.0001) %MON dynstat_salt_del2            =   2.7826410955799E-06
(PID.TID 0000.0001) %MON advcfl_uvel_max              =   7.0262677058317E-03
(PID.TID 0000.0001) %MON advcfl_vvel_max              =   4.2116084380380E-03
(PID.TID 0000.0001) %MON advcfl_wvel_max              =   1.1859791345022E-02
(PID.TID 0000.0001) %MON advcfl_W_hf_max              =   1.1859791345022E-02
(PID.TID 0000.0001) %MON pe_b_mean                    =  -8.2963017760975E-01
(PID.TID 0000.0001) %MON ke_max                       =   2.2252392707192E-03
(PID.TID 0000.0001) %MON ke_mean                      =   2.7263049804671E-06
(PID.TID 0000.0001) %MON ke_vol                       =   4.2724647076882E+12
(PID.TID 0000.0001) // =======================================================
(PID.TID 0000.0001) // End MONITOR dynamic field statistics
(PID.TID 0000.0001) // =======================================================
(PID.TID 0000.0001) // =======================================================
(PID.TID 0000.0001) // Begin OBCS MONITOR field statistics
(PID.TID 0000.0001) // =======================================================
(PID.TID 0000.0001) %MON obc_N_vVel_max               =   1.4964391963980E-05
(PID.TID 0000.0001) %MON obc_N_vVel_min               =   1.4964391963980E-05
(PID.TID 0000.0001) %MON obc_N_vVel_mean              =   1.4964391963980E-05
(PID.TID 0000.0001) %MON obc_N_vVel_sd                =   1.6157935537594E-12
(PID.TID 0000.0001) %MON obc_N_vVel_Int               =   9.8764986962268E+02
(PID.TID 0000.0001) // =======================================================
(PID.TID 0000.0001) // End OBCS MONITOR field statistics
(PID.TID 0000.0001) // =======================================================
 cg2d: Sum(rhs),rhsMax =   4.50808705385389E+00  2.99971878996655E+02
(PID.TID 0000.0001)      cg2d_init_res =   1.24839965350662E-05
(PID.TID 0000.0001)      cg2d_iters(min,last) =      -1      85
(PID.TID 0000.0001)      cg2d_last_res =   9.03597958928776E-12
(PID.TID 0000.0001) // =======================================================
(PID.TID 0000.0001) // Begin MONITOR dynamic field statistics
(PID.TID 0000.0001) // =======================================================
(PID.TID 0000.0001) %MON time_tsnumber                =                  1545
(PID.TID 0000.0001) %MON time_secondsf                =   1.5450000000000E+05
(PID.TID 0000.0001) %MON dynstat_eta_max              =   5.8050000806039E+00
(PID.TID 0000.0001) %MON dynstat_eta_min              =  -1.4196112464269E+01
(PID.TID 0000.0001) %MON dynstat_eta_mean             =  -2.5042580448612E+00
(PID.TID 0000.0001) %MON dynstat_eta_sd               =   4.9502269902188E+00
(PID.TID 0000.0001) %MON dynstat_eta_del2             =   2.0717374480387E-01
(PID.TID 0000.0001) %MON dynstat_uvel_max             =   1.6048020872296E-02
(PID.TID 0000.0001) %MON dynstat_uvel_min             =  -7.0382731381791E-02
(PID.TID 0000.0001) %MON dynstat_uvel_mean            =  -1.0330607895824E-07
(PID.TID 0000.0001) %MON dynstat_uvel_sd              =   2.0956530401300E-03
(PID.TID 0000.0001) %MON dynstat_uvel_del2            =   3.2916715637265E-06
(PID.TID 0000.0001) %MON dynstat_vvel_max             =   4.2160371951087E-02
(PID.TID 0000.0001) %MON dynstat_vvel_min             =  -2.5305348254946E-02
(PID.TID 0000.0001) %MON dynstat_vvel_mean            =   1.5275426305713E-05
(PID.TID 0000.0001) %MON dynstat_vvel_sd              =   1.0815828217903E-03
(PID.TID 0000.0001) %MON dynstat_vvel_del2            =   2.2453325313387E-06
(PID.TID 0000.0001) %MON dynstat_wvel_max             =   2.3748581376178E-03
(PID.TID 0000.0001) %MON dynstat_wvel_min             =  -2.3359491674796E-03
(PID.TID 0000.0001) %MON dynstat_wvel_mean            =   7.4411829114925E-09
(PID.TID 0000.0001) %MON dynstat_wvel_sd              =   3.9894591597462E-05
(PID.TID 0000.0001) %MON dynstat_wvel_del2            =   1.5587632894882E-07
(PID.TID 0000.0001) %MON dynstat_theta_max            =   1.2000000000000E+00
(PID.TID 0000.0001) %MON dynstat_theta_min            =  -1.0000000000000E+00
(PID.TID 0000.0001) %MON dynstat_theta_mean           =   5.6808204264079E-01
(PID.TID 0000.0001) %MON dynstat_theta_sd             =   8.6804016488058E-01
(PID.TID 0000.0001) %MON dynstat_theta_del2           =   7.0303191521410E-06
(PID.TID 0000.0001) %MON dynstat_salt_max             =   3.4700000000000E+01
(PID.TID 0000.0001) %MON dynstat_salt_min             =   3.4000000000000E+01
(PID.TID 0000.0001) %MON dynstat_salt_mean            =   3.4498846808407E+01
(PID.TID 0000.0001) %MON dynstat_salt_sd              =   2.7615929871990E-01
(PID.TID 0000.0001) %MON dynstat_salt_del2            =   2.7876071369013E-06
(PID.TID 0000.0001) %MON advcfl_uvel_max              =   7.0382731381791E-03
(PID.TID 0000.0001) %MON advcfl_vvel_max              =   4.2160371951087E-03
(PID.TID 0000.0001) %MON advcfl_wvel_max              =   1.1874290688089E-02
(PID.TID 0000.0001) %MON advcfl_W_hf_max              =   1.1874290688089E-02
(PID.TID 0000.0001) %MON pe_b_mean                    =  -8.2962929945637E-01
(PID.TID 0000.0001) %MON ke_max                       =   2.2345500284317E-03
(PID.TID 0000.0001) %MON ke_mean                      =   2.7373525078341E-06
(PID.TID 0000.0001) %MON ke_vol                       =   4.2724647073516E+12
(PID.TID 0000.0001) // =======================================================
(PID.TID 0000.0001) // End MONITOR dynamic field statistics
(PID.TID 0000.0001) // =======================================================
(PID.TID 0000.0001) // =======================================================
(PID.TID 0000.0001) // Begin OBCS MONITOR field statistics
(PID.TID 0000.0001) // =======================================================
(PID.TID 0000.0001) %MON obc_N_vVel_max               =   1.4959137134779E-05
(PID.TID 0000.0001) %MON obc_N_vVel_min               =   1.4959137134779E-05
(PID.TID 0000.0001) %MON obc_N_vVel_mean              =   1.4959137134779E-05
(PID.TID 0000.0001) %MON obc_N_vVel_sd                =   4.8420450728024E-12
(PID.TID 0000.0001) %MON obc_N_vVel_Int               =   9.8730305089541E+02
(PID.TID 0000.0001) // =======================================================
(PID.TID 0000.0001) // End OBCS MONITOR field statistics
(PID.TID 0000.0001) // =======================================================
 cg2d: Sum(rhs),rhsMax =   4.50808584583486E+00  2.99971958200577E+02
(PID.TID 0000.0001)      cg2d_init_res =   1.25007696922679E-05
(PID.TID 0000.0001)      cg2d_iters(min,last) =      -1      85
(PID.TID 0000.0001)      cg2d_last_res =   9.04403386351059E-12
(PID.TID 0000.0001) // =======================================================
(PID.TID 0000.0001) // Begin MONITOR dynamic field statistics
(PID.TID 0000.0001) // =======================================================
(PID.TID 0000.0001) %MON time_tsnumber                =                  1546
(PID.TID 0000.0001) %MON time_secondsf                =   1.5460000000000E+05
(PID.TID 0000.0001) %MON dynstat_eta_max              =   5.8050420552043E+00
(PID.TID 0000.0001) %MON dynstat_eta_min              =  -1.4196142328676E+01
(PID.TID 0000.0001) %MON dynstat_eta_mean             =  -2.5042580350211E+00
(PID.TID 0000.0001) %MON dynstat_eta_sd               =   4.9502276809317E+00
(PID.TID 0000.0001) %MON dynstat_eta_del2             =   2.0717380849786E-01
(PID.TID 0000.0001) %MON dynstat_uvel_max             =   1.6081583924370E-02
(PID.TID 0000.0001) %MON dynstat_uvel_min             =  -7.0502765177989E-02
(PID.TID 0000.0001) %MON dynstat_uvel_mean            =  -1.0329931536591E-07
(PID.TID 0000.0001) %MON dynstat_uvel_sd              =   2.0999722740867E-03
(PID.TID 0000.0001) %MON dynstat_uvel_del2            =   3.2995499237179E-06
(PID.TID 0000.0001) %MON dynstat_vvel_max             =   4.2204606862840E-02
(PID.TID 0000.0001) %MON dynstat_vvel_min             =  -2.5361156132167E-02
(PID.TID 0000.0001) %MON dynstat_vvel_mean            =   1.5270111010914E-05
(PID.TID 0000.0001) %MON dynstat_vvel_sd              =   1.0836203399620E-03
(PID.TID 0000.0001) %MON dynstat_vvel_del2            =   2.2496049497285E-06
(PID.TID 0000.0001) %MON dynstat_wvel_max             =   2.3777539693549E-03
(PID.TID 0000.0001) %MON dynstat_wvel_min             =  -2.3390904513686E-03
(PID.TID 0000.0001) %MON dynstat_wvel_mean            =   7.4387647837672E-09
(PID.TID 0000.0001) %MON dynstat_wvel_sd              =   3.9975205141383E-05
(PID.TID 0000.0001) %MON dynstat_wvel_del2            =   1.5612802578856E-07
(PID.TID 0000.0001) %MON dynstat_theta_max            =   1.2000000000000E+00
(PID.TID 0000.0001) %MON dynstat_theta_min            =  -1.0000000000000E+00
(PID.TID 0000.0001) %MON dynstat_theta_mean           =   5.6808005727995E-01
(PID.TID 0000.0001) %MON dynstat_theta_sd             =   8.6803916204282E-01
(PID.TID 0000.0001) %MON dynstat_theta_del2           =   7.0428208520213E-06
(PID.TID 0000.0001) %MON dynstat_salt_max             =   3.4700000000000E+01
(PID.TID 0000.0001) %MON dynstat_salt_min             =   3.4000000000000E+01
(PID.TID 0000.0001) %MON dynstat_salt_mean            =   3.4498846013636E+01
(PID.TID 0000.0001) %MON dynstat_salt_sd              =   2.7615891831519E-01
(PID.TID 0000.0001) %MON dynstat_salt_del2            =   2.7925779603962E-06
(PID.TID 0000.0001) %MON advcfl_uvel_max              =   7.0502765177989E-03
(PID.TID 0000.0001) %MON advcfl_vvel_max              =   4.2204606862840E-03
(PID.TID 0000.0001) %MON advcfl_wvel_max              =   1.1888769846774E-02
(PID.TID 0000.0001) %MON advcfl_W_hf_max              =   1.1888769846774E-02
(PID.TID 0000.0001) %MON pe_b_mean                    =  -8.2962841037384E-01
(PID.TID 0000.0001) %MON ke_max                       =   2.2438874552626E-03
(PID.TID 0000.0001) %MON ke_mean                      =   2.7484394885077E-06
(PID.TID 0000.0001) %MON ke_vol                       =   4.2724647072135E+12
(PID.TID 0000.0001) // =======================================================
(PID.TID 0000.0001) // End MONITOR dynamic field statistics
(PID.TID 0000.0001) // =======================================================
(PID.TID 0000.0001) // =======================================================
(PID.TID 0000.0001) // Begin OBCS MONITOR field statistics
(PID.TID 0000.0001) // =======================================================
(PID.TID 0000.0001) %MON obc_N_vVel_max               =   1.4954195924818E-05
(PID.TID 0000.0001) %MON obc_N_vVel_min               =   1.4954195924818E-05
(PID.TID 0000.0001) %MON obc_N_vVel_mean              =   1.4954195924818E-05
(PID.TID 0000.0001) %MON obc_N_vVel_sd                =   3.3145124091591E-12
(PID.TID 0000.0001) %MON obc_N_vVel_Int               =   9.8697693103800E+02
(PID.TID 0000.0001) // =======================================================
(PID.TID 0000.0001) // End OBCS MONITOR field statistics
(PID.TID 0000.0001) // =======================================================
 cg2d: Sum(rhs),rhsMax =   4.50808457795361E+00  2.99972037478219E+02
(PID.TID 0000.0001)      cg2d_init_res =   1.25178812041927E-05
(PID.TID 0000.0001)      cg2d_iters(min,last) =      -1      85
(PID.TID 0000.0001)      cg2d_last_res =   9.05260908356436E-12
(PID.TID 0000.0001) // =======================================================
(PID.TID 0000.0001) // Begin MONITOR dynamic field statistics
(PID.TID 0000.0001) // =======================================================
(PID.TID 0000.0001) %MON time_tsnumber                =                  1547
(PID.TID 0000.0001) %MON time_secondsf                =   1.5470000000000E+05
(PID.TID 0000.0001) %MON dynstat_eta_max              =   5.8050841568743E+00
(PID.TID 0000.0001) %MON dynstat_eta_min              =  -1.4196172188290E+01
(PID.TID 0000.0001) %MON dynstat_eta_mean             =  -2.5042579925424E+00
(PID.TID 0000.0001) %MON dynstat_eta_sd               =   4.9502283623525E+00
(PID.TID 0000.0001) %MON dynstat_eta_del2             =   2.0717387227669E-01
(PID.TID 0000.0001) %MON dynstat_uvel_max             =   1.6115195161051E-02
(PID.TID 0000.0001) %MON dynstat_uvel_min             =  -7.0622777664121E-02
(PID.TID 0000.0001) %MON dynstat_uvel_mean            =  -1.0329909578722E-07
(PID.TID 0000.0001) %MON dynstat_uvel_sd              =   2.1042976262382E-03
(PID.TID 0000.0001) %MON dynstat_uvel_del2            =   3.3074453797673E-06
(PID.TID 0000.0001) %MON dynstat_vvel_max             =   4.2248788936369E-02
(PID.TID 0000.0001) %MON dynstat_vvel_min             =  -2.5417030999117E-02
(PID.TID 0000.0001) %MON dynstat_vvel_mean            =   1.5265387114476E-05
(PID.TID 0000.0001) %MON dynstat_vvel_sd              =   1.0856618596953E-03
(PID.TID 0000.0001) %MON dynstat_vvel_del2            =   2.2538865943134E-06
(PID.TID 0000.0001) %MON dynstat_wvel_max             =   2.3806457242971E-03
(PID.TID 0000.0001) %MON dynstat_wvel_min             =  -2.3422272344440E-03
(PID.TID 0000.0001) %MON dynstat_wvel_mean            =   7.4380724617987E-09
(PID.TID 0000.0001) %MON dynstat_wvel_sd              =   4.0058516734651E-05
(PID.TID 0000.0001) %MON dynstat_wvel_del2            =   1.5638685241955E-07
(PID.TID 0000.0001) %MON dynstat_theta_max            =   1.2000000000000E+00
(PID.TID 0000.0001) %MON dynstat_theta_min            =  -1.0000000000000E+00
(PID.TID 0000.0001) %MON dynstat_theta_mean           =   5.6807806859162E-01
(PID.TID 0000.0001) %MON dynstat_theta_sd             =   8.6803815782974E-01
(PID.TID 0000.0001) %MON dynstat_theta_del2           =   7.0553355770821E-06
(PID.TID 0000.0001) %MON dynstat_salt_max             =   3.4700000000000E+01
(PID.TID 0000.0001) %MON dynstat_salt_min             =   3.4000000000000E+01
(PID.TID 0000.0001) %MON dynstat_salt_mean            =   3.4498845217536E+01
(PID.TID 0000.0001) %MON dynstat_salt_sd              =   2.7615853742207E-01
(PID.TID 0000.0001) %MON dynstat_salt_del2            =   2.7975539139996E-06
(PID.TID 0000.0001) %MON advcfl_uvel_max              =   7.0622777664121E-03
(PID.TID 0000.0001) %MON advcfl_vvel_max              =   4.2248788936369E-03
(PID.TID 0000.0001) %MON advcfl_wvel_max              =   1.1903228621486E-02
(PID.TID 0000.0001) %MON advcfl_W_hf_max              =   1.1903228621486E-02
(PID.TID 0000.0001) %MON pe_b_mean                    =  -8.2962751051060E-01
(PID.TID 0000.0001) %MON ke_max                       =   2.2532515459354E-03
(PID.TID 0000.0001) %MON ke_mean                      =   2.7595658788715E-06
(PID.TID 0000.0001) %MON ke_vol                       =   4.2724647072720E+12
(PID.TID 0000.0001) // =======================================================
(PID.TID 0000.0001) // End MONITOR dynamic field statistics
(PID.TID 0000.0001) // =======================================================
(PID.TID 0000.0001) // =======================================================
(PID.TID 0000.0001) // Begin OBCS MONITOR field statistics
(PID.TID 0000.0001) // =======================================================
(PID.TID 0000.0001) %MON obc_N_vVel_max               =   1.4949688782355E-05
(PID.TID 0000.0001) %MON obc_N_vVel_min               =   1.4949688782354E-05
(PID.TID 0000.0001) %MON obc_N_vVel_mean              =   1.4949688782355E-05
(PID.TID 0000.0001) %MON obc_N_vVel_sd                =  -1.3493383742271E-23
(PID.TID 0000.0001) %MON obc_N_vVel_Int               =   9.8667945963540E+02
(PID.TID 0000.0001) // =======================================================
(PID.TID 0000.0001) // End OBCS MONITOR field statistics
(PID.TID 0000.0001) // =======================================================
 cg2d: Sum(rhs),rhsMax =   4.50808325106357E+00  2.99972116841805E+02
(PID.TID 0000.0001)      cg2d_init_res =   1.25353670488457E-05
(PID.TID 0000.0001)      cg2d_iters(min,last) =      -1      85
(PID.TID 0000.0001)      cg2d_last_res =   9.06166974218816E-12
(PID.TID 0000.0001) // =======================================================
(PID.TID 0000.0001) // Begin MONITOR dynamic field statistics
(PID.TID 0000.0001) // =======================================================
(PID.TID 0000.0001) %MON time_tsnumber                =                  1548
(PID.TID 0000.0001) %MON time_secondsf                =   1.5480000000000E+05
(PID.TID 0000.0001) %MON dynstat_eta_max              =   5.8051263842940E+00
(PID.TID 0000.0001) %MON dynstat_eta_min              =  -1.4196202043951E+01
(PID.TID 0000.0001) %MON dynstat_eta_mean             =  -2.5042579180012E+00
(PID.TID 0000.0001) %MON dynstat_eta_sd               =   4.9502290347544E+00
(PID.TID 0000.0001) %MON dynstat_eta_del2             =   2.0717393614036E-01
(PID.TID 0000.0001) %MON dynstat_uvel_max             =   1.6148854603539E-02
(PID.TID 0000.0001) %MON dynstat_uvel_min             =  -7.0742768065704E-02
(PID.TID 0000.0001) %MON dynstat_uvel_mean            =  -1.0330473211111E-07
(PID.TID 0000.0001) %MON dynstat_uvel_sd              =   2.1086290938600E-03
(PID.TID 0000.0001) %MON dynstat_uvel_del2            =   3.3153579478907E-06
(PID.TID 0000.0001) %MON dynstat_vvel_max             =   4.2292918011198E-02
(PID.TID 0000.0001) %MON dynstat_vvel_min             =  -2.5472972431803E-02
(PID.TID 0000.0001) %MON dynstat_vvel_mean            =   1.5261371541805E-05
(PID.TID 0000.0001) %MON dynstat_vvel_sd              =   1.0877072268545E-03
(PID.TID 0000.0001) %MON dynstat_vvel_del2            =   2.2581770959723E-06
(PID.TID 0000.0001) %MON dynstat_wvel_max             =   2.3835334205967E-03
(PID.TID 0000.0001) %MON dynstat_wvel_min             =  -2.3453593768186E-03
(PID.TID 0000.0001) %MON dynstat_wvel_mean            =   7.4391455085145E-09
(PID.TID 0000.0001) %MON dynstat_wvel_sd              =   4.0144015518818E-05
(PID.TID 0000.0001) %MON dynstat_wvel_del2            =   1.5665231567420E-07
(PID.TID 0000.0001) %MON dynstat_theta_max            =   1.2000000000000E+00
(PID.TID 0000.0001) %MON dynstat_theta_min            =  -1.0000000000000E+00
(PID.TID 0000.0001) %MON dynstat_theta_mean           =   5.6807607657500E-01
(PID.TID 0000.0001) %MON dynstat_theta_sd             =   8.6803715224788E-01
(PID.TID 0000.0001) %MON dynstat_theta_del2           =   7.0678627878094E-06
(PID.TID 0000.0001) %MON dynstat_salt_max             =   3.4700000000000E+01
(PID.TID 0000.0001) %MON dynstat_salt_min             =   3.4000000000000E+01
(PID.TID 0000.0001) %MON dynstat_salt_mean            =   3.4498844420104E+01
(PID.TID 0000.0001) %MON dynstat_salt_sd              =   2.7615815603992E-01
(PID.TID 0000.0001) %MON dynstat_salt_del2            =   2.8025351896697E-06
(PID.TID 0000.0001) %MON advcfl_uvel_max              =   7.0742768065704E-03
(PID.TID 0000.0001) %MON advcfl_vvel_max              =   4.2292918011198E-03
(PID.TID 0000.0001) %MON advcfl_wvel_max              =   1.1917667102984E-02
(PID.TID 0000.0001) %MON advcfl_W_hf_max              =   1.1917667102984E-02
(PID.TID 0000.0001) %MON pe_b_mean                    =  -8.2962660004345E-01
(PID.TID 0000.0001) %MON ke_max                       =   2.2626422949826E-03
(PID.TID 0000.0001) %MON ke_mean                      =   2.7707316097418E-06
(PID.TID 0000.0001) %MON ke_vol                       =   4.2724647075243E+12
(PID.TID 0000.0001) // =======================================================
(PID.TID 0000.0001) // End MONITOR dynamic field statistics
(PID.TID 0000.0001) // =======================================================
(PID.TID 0000.0001) // =======================================================
(PID.TID 0000.0001) // Begin OBCS MONITOR field statistics
(PID.TID 0000.0001) // =======================================================
(PID.TID 0000.0001) %MON obc_N_vVel_max               =   1.4945725253233E-05
(PID.TID 0000.0001) %MON obc_N_vVel_min               =   1.4945725253233E-05
(PID.TID 0000.0001) %MON obc_N_vVel_mean              =   1.4945725253233E-05
(PID.TID 0000.0001) %MON obc_N_vVel_sd                =  -1.2459407976580E-23
(PID.TID 0000.0001) %MON obc_N_vVel_Int               =   9.8641786671337E+02
(PID.TID 0000.0001) // =======================================================
(PID.TID 0000.0001) // End OBCS MONITOR field statistics
(PID.TID 0000.0001) // =======================================================
 cg2d: Sum(rhs),rhsMax =   4.50808186621971E+00  2.99972196302976E+02
(PID.TID 0000.0001)      cg2d_init_res =   1.25531857197772E-05
(PID.TID 0000.0001)      cg2d_iters(min,last) =      -1      85
(PID.TID 0000.0001)      cg2d_last_res =   9.07114595449487E-12
(PID.TID 0000.0001) // =======================================================
(PID.TID 0000.0001) // Begin MONITOR dynamic field statistics
(PID.TID 0000.0001) // =======================================================
(PID.TID 0000.0001) %MON time_tsnumber                =                  1549
(PID.TID 0000.0001) %MON time_secondsf                =   1.5490000000000E+05
(PID.TID 0000.0001) %MON dynstat_eta_max              =   5.8051687359496E+00
(PID.TID 0000.0001) %MON dynstat_eta_min              =  -1.4196231896557E+01
(PID.TID 0000.0001) %MON dynstat_eta_mean             =  -2.5042578120806E+00
(PID.TID 0000.0001) %MON dynstat_eta_sd               =   4.9502296984374E+00
(PID.TID 0000.0001) %MON dynstat_eta_del2             =   2.0717400008911E-01
(PID.TID 0000.0001) %MON dynstat_uvel_max             =   1.6182562278130E-02
(PID.TID 0000.0001) %MON dynstat_uvel_min             =  -7.0862735612637E-02
(PID.TID 0000.0001) %MON dynstat_uvel_mean            =  -1.0331538051458E-07
(PID.TID 0000.0001) %MON dynstat_uvel_sd              =   2.1129666717328E-03
(PID.TID 0000.0001) %MON dynstat_uvel_del2            =   3.3232876451941E-06
(PID.TID 0000.0001) %MON dynstat_vvel_max             =   4.2336993919095E-02
(PID.TID 0000.0001) %MON dynstat_vvel_min             =  -2.5528980016139E-02
(PID.TID 0000.0001) %MON dynstat_vvel_mean            =   1.5258164241725E-05
(PID.TID 0000.0001) %MON dynstat_vvel_sd              =   1.0897562672365E-03
(PID.TID 0000.0001) %MON dynstat_vvel_del2            =   2.2624760422702E-06
(PID.TID 0000.0001) %MON dynstat_wvel_max             =   2.3864171014222E-03
(PID.TID 0000.0001) %MON dynstat_wvel_min             =  -2.3484867343521E-03
(PID.TID 0000.0001) %MON dynstat_wvel_mean            =   7.4419823810690E-09
(PID.TID 0000.0001) %MON dynstat_wvel_sd              =   4.0231121579180E-05
(PID.TID 0000.0001) %MON dynstat_wvel_del2            =   1.5692368987031E-07
(PID.TID 0000.0001) %MON dynstat_theta_max            =   1.2000000000000E+00
(PID.TID 0000.0001) %MON dynstat_theta_min            =  -1.0000000000000E+00
(PID.TID 0000.0001) %MON dynstat_theta_mean           =   5.6807408122935E-01
(PID.TID 0000.0001) %MON dynstat_theta_sd             =   8.6803614529602E-01
(PID.TID 0000.0001) %MON dynstat_theta_del2           =   7.0804029158349E-06
(PID.TID 0000.0001) %MON dynstat_salt_max             =   3.4700000000000E+01
(PID.TID 0000.0001) %MON dynstat_salt_min             =   3.4000000000000E+01
(PID.TID 0000.0001) %MON dynstat_salt_mean            =   3.4498843621342E+01
(PID.TID 0000.0001) %MON dynstat_salt_sd              =   2.7615777416850E-01
(PID.TID 0000.0001) %MON dynstat_salt_del2            =   2.8075218983751E-06
(PID.TID 0000.0001) %MON advcfl_uvel_max              =   7.0862735612637E-03
(PID.TID 0000.0001) %MON advcfl_vvel_max              =   4.2336993919095E-03
(PID.TID 0000.0001) %MON advcfl_wvel_max              =   1.1932085507111E-02
(PID.TID 0000.0001) %MON advcfl_W_hf_max              =   1.1932085507111E-02
(PID.TID 0000.0001) %MON pe_b_mean                    =  -8.2962567917322E-01
(PID.TID 0000.0001) %MON ke_max                       =   2.2720596964707E-03
(PID.TID 0000.0001) %MON ke_mean                      =   2.7819365834904E-06
(PID.TID 0000.0001) %MON ke_vol                       =   4.2724647079671E+12
(PID.TID 0000.0001) // =======================================================
(PID.TID 0000.0001) // End MONITOR dynamic field statistics
(PID.TID 0000.0001) // =======================================================
(PID.TID 0000.0001) // =======================================================
(PID.TID 0000.0001) // Begin OBCS MONITOR field statistics
(PID.TID 0000.0001) // =======================================================
(PID.TID 0000.0001) %MON obc_N_vVel_max               =   1.4942401621281E-05
(PID.TID 0000.0001) %MON obc_N_vVel_min               =   1.4942401621281E-05
(PID.TID 0000.0001) %MON obc_N_vVel_mean              =   1.4942401621281E-05
(PID.TID 0000.0001) %MON obc_N_vVel_sd                =   3.0884343021185E-12
(PID.TID 0000.0001) %MON obc_N_vVel_Int               =   9.8619850700451E+02
(PID.TID 0000.0001) // =======================================================
(PID.TID 0000.0001) // End OBCS MONITOR field statistics
(PID.TID 0000.0001) // =======================================================
 cg2d: Sum(rhs),rhsMax =   4.50808042465167E+00  2.99972275872530E+02
(PID.TID 0000.0001)      cg2d_init_res =   1.25713098002149E-05
(PID.TID 0000.0001)      cg2d_iters(min,last) =      -1      85
(PID.TID 0000.0001)      cg2d_last_res =   9.08096543251913E-12
(PID.TID 0000.0001) // =======================================================
(PID.TID 0000.0001) // Begin MONITOR dynamic field statistics
(PID.TID 0000.0001) // =======================================================
(PID.TID 0000.0001) %MON time_tsnumber                =                  1550
(PID.TID 0000.0001) %MON time_secondsf                =   1.5500000000000E+05
(PID.TID 0000.0001) %MON dynstat_eta_max              =   5.8052112101801E+00
(PID.TID 0000.0001) %MON dynstat_eta_min              =  -1.4196261747072E+01
(PID.TID 0000.0001) %MON dynstat_eta_mean             =  -2.5042576755540E+00
(PID.TID 0000.0001) %MON dynstat_eta_sd               =   4.9502303537155E+00
(PID.TID 0000.0001) %MON dynstat_eta_del2             =   2.0717406412316E-01
(PID.TID 0000.0001) %MON dynstat_uvel_max             =   1.6216318209452E-02
(PID.TID 0000.0001) %MON dynstat_uvel_min             =  -7.0982679540324E-02
(PID.TID 0000.0001) %MON dynstat_uvel_mean            =  -1.0333010249362E-07
(PID.TID 0000.0001) %MON dynstat_uvel_sd              =   2.1173103545922E-03
(PID.TID 0000.0001) %MON dynstat_uvel_del2            =   3.3312344885411E-06
(PID.TID 0000.0001) %MON dynstat_vvel_max             =   4.2381016486193E-02
(PID.TID 0000.0001) %MON dynstat_vvel_min             =  -2.5585053330117E-02
(PID.TID 0000.0001) %MON dynstat_vvel_mean            =   1.5255846086314E-05
(PID.TID 0000.0001) %MON dynstat_vvel_sd              =   1.0918087919432E-03
(PID.TID 0000.0001) %MON dynstat_vvel_del2            =   2.2667829712688E-06
(PID.TID 0000.0001) %MON dynstat_wvel_max             =   2.3892968178448E-03
(PID.TID 0000.0001) %MON dynstat_wvel_min             =  -2.3516091595747E-03
(PID.TID 0000.0001) %MON dynstat_wvel_mean            =   7.4465427048444E-09
(PID.TID 0000.0001) %MON dynstat_wvel_sd              =   4.0319205861351E-05
(PID.TID 0000.0001) %MON dynstat_wvel_del2            =   1.5720001688340E-07
(PID.TID 0000.0001) %MON dynstat_theta_max            =   1.2000000000000E+00
(PID.TID 0000.0001) %MON dynstat_theta_min            =  -1.0000000000000E+00
(PID.TID 0000.0001) %MON dynstat_theta_mean           =   5.6807208255394E-01
(PID.TID 0000.0001) %MON dynstat_theta_sd             =   8.6803513697275E-01
(PID.TID 0000.0001) %MON dynstat_theta_del2           =   7.0929564929579E-06
(PID.TID 0000.0001) %MON dynstat_salt_max             =   3.4700000000000E+01
(PID.TID 0000.0001) %MON dynstat_salt_min             =   3.4000000000000E+01
(PID.TID 0000.0001) %MON dynstat_salt_mean            =   3.4498842821247E+01
(PID.TID 0000.0001) %MON dynstat_salt_sd              =   2.7615739180765E-01
(PID.TID 0000.0001) %MON dynstat_salt_del2            =   2.8125141692877E-06
(PID.TID 0000.0001) %MON advcfl_uvel_max              =   7.0982679540324E-03
(PID.TID 0000.0001) %MON advcfl_vvel_max              =   4.2381016486193E-03
(PID.TID 0000.0001) %MON advcfl_wvel_max              =   1.1946484089224E-02
(PID.TID 0000.0001) %MON advcfl_W_hf_max              =   1.1946484089224E-02
(PID.TID 0000.0001) %MON pe_b_mean                    =  -8.2962474811979E-01
(PID.TID 0000.0001) %MON ke_max                       =   2.2815037440990E-03
(PID.TID 0000.0001) %MON ke_mean                      =   2.7931806846989E-06
(PID.TID 0000.0001) %MON ke_vol                       =   4.2724647085962E+12
(PID.TID 0000.0001) // =======================================================
(PID.TID 0000.0001) // End MONITOR dynamic field statistics
(PID.TID 0000.0001) // =======================================================
(PID.TID 0000.0001) // =======================================================
(PID.TID 0000.0001) // Begin OBCS MONITOR field statistics
(PID.TID 0000.0001) // =======================================================
(PID.TID 0000.0001) %MON obc_N_vVel_max               =   1.4939798906940E-05
(PID.TID 0000.0001) %MON obc_N_vVel_min               =   1.4939798906939E-05
(PID.TID 0000.0001) %MON obc_N_vVel_mean              =   1.4939798906940E-05
(PID.TID 0000.0001) %MON obc_N_vVel_sd                =  -1.6776256798341E-23
(PID.TID 0000.0001) %MON obc_N_vVel_Int               =   9.8602672785803E+02
(PID.TID 0000.0001) // =======================================================
(PID.TID 0000.0001) // End OBCS MONITOR field statistics
(PID.TID 0000.0001) // =======================================================
 cg2d: Sum(rhs),rhsMax =   4.50807892773370E+00  2.99972355560181E+02
(PID.TID 0000.0001)      cg2d_init_res =   1.25897073927430E-05
(PID.TID 0000.0001)      cg2d_iters(min,last) =      -1      85
(PID.TID 0000.0001)      cg2d_last_res =   9.09104794345227E-12
(PID.TID 0000.0001) // =======================================================
(PID.TID 0000.0001) // Begin MONITOR dynamic field statistics
(PID.TID 0000.0001) // =======================================================
(PID.TID 0000.0001) %MON time_tsnumber                =                  1551
(PID.TID 0000.0001) %MON time_secondsf                =   1.5510000000000E+05
(PID.TID 0000.0001) %MON dynstat_eta_max              =   5.8052538052252E+00
(PID.TID 0000.0001) %MON dynstat_eta_min              =  -1.4196291596487E+01
(PID.TID 0000.0001) %MON dynstat_eta_mean             =  -2.5042575092657E+00
(PID.TID 0000.0001) %MON dynstat_eta_sd               =   4.9502310009091E+00
(PID.TID 0000.0001) %MON dynstat_eta_del2             =   2.0717412824270E-01
(PID.TID 0000.0001) %MON dynstat_uvel_max             =   1.6250122422703E-02
(PID.TID 0000.0001) %MON dynstat_uvel_min             =  -7.1102599090228E-02
(PID.TID 0000.0001) %MON dynstat_uvel_mean            =  -1.0334787625474E-07
(PID.TID 0000.0001) %MON dynstat_uvel_sd              =   2.1216601372383E-03
(PID.TID 0000.0001) %MON dynstat_uvel_del2            =   3.3391984943119E-06
(PID.TID 0000.0001) %MON dynstat_vvel_max             =   4.2424985533359E-02
(PID.TID 0000.0001) %MON dynstat_vvel_min             =  -2.5641191952639E-02
(PID.TID 0000.0001) %MON dynstat_vvel_mean            =   1.5254477234540E-05
(PID.TID 0000.0001) %MON dynstat_vvel_sd              =   1.0938646041277E-03
(PID.TID 0000.0001) %MON dynstat_vvel_del2            =   2.2710973835739E-06
(PID.TID 0000.0001) %MON dynstat_wvel_max             =   2.3921726169500E-03
(PID.TID 0000.0001) %MON dynstat_wvel_min             =  -2.3547265035034E-03
(PID.TID 0000.0001) %MON dynstat_wvel_mean            =   7.4527480901203E-09
(PID.TID 0000.0001) %MON dynstat_wvel_sd              =   4.0407611878847E-05
(PID.TID 0000.0001) %MON dynstat_wvel_del2            =   1.5748011884220E-07
(PID.TID 0000.0001) %MON dynstat_theta_max            =   1.2000000000000E+00
(PID.TID 0000.0001) %MON dynstat_theta_min            =  -1.0000000000000E+00
(PID.TID 0000.0001) %MON dynstat_theta_mean           =   5.6807008054806E-01
(PID.TID 0000.0001) %MON dynstat_theta_sd             =   8.6803412727721E-01
(PID.TID 0000.0001) %MON dynstat_theta_del2           =   7.1055241265520E-06
(PID.TID 0000.0001) %MON dynstat_salt_max             =   3.4700000000000E+01
(PID.TID 0000.0001) %MON dynstat_salt_min             =   3.4000000000000E+01
(PID.TID 0000.0001) %MON dynstat_salt_mean            =   3.4498842019820E+01
(PID.TID 0000.0001) %MON dynstat_salt_sd              =   2.7615700895712E-01
(PID.TID 0000.0001) %MON dynstat_salt_del2            =   2.8175121498927E-06
(PID.TID 0000.0001) %MON advcfl_uvel_max              =   7.1102599090228E-03
(PID.TID 0000.0001) %MON advcfl_vvel_max              =   4.2424985533359E-03
(PID.TID 0000.0001) %MON advcfl_wvel_max              =   1.1960863084750E-02
(PID.TID 0000.0001) %MON advcfl_W_hf_max              =   1.1960863084750E-02
(PID.TID 0000.0001) %MON pe_b_mean                    =  -8.2962380711671E-01
(PID.TID 0000.0001) %MON ke_max                       =   2.2909744312488E-03
(PID.TID 0000.0001) %MON ke_mean                      =   2.8044637875837E-06
(PID.TID 0000.0001) %MON ke_vol                       =   4.2724647094072E+12
(PID.TID 0000.0001) // =======================================================
(PID.TID 0000.0001) // End MONITOR dynamic field statistics
(PID.TID 0000.0001) // =======================================================
(PID.TID 0000.0001) // =======================================================
(PID.TID 0000.0001) // Begin OBCS MONITOR field statistics
(PID.TID 0000.0001) // =======================================================
(PID.TID 0000.0001) %MON obc_N_vVel_max               =   1.4937981169829E-05
(PID.TID 0000.0001) %MON obc_N_vVel_min               =   1.4937981169829E-05
(PID.TID 0000.0001) %MON obc_N_vVel_mean              =   1.4937981169829E-05
(PID.TID 0000.0001) %MON obc_N_vVel_sd                =  -2.9726803263624E-24
(PID.TID 0000.0001) %MON obc_N_vVel_Int               =   9.8590675720870E+02
(PID.TID 0000.0001) // =======================================================
(PID.TID 0000.0001) // End OBCS MONITOR field statistics
(PID.TID 0000.0001) // =======================================================
 cg2d: Sum(rhs),rhsMax =   4.50807737695026E+00  2.99972435374374E+02
(PID.TID 0000.0001)      cg2d_init_res =   1.26083385997731E-05
(PID.TID 0000.0001)      cg2d_iters(min,last) =      -1      85
(PID.TID 0000.0001)      cg2d_last_res =   9.10131029889911E-12
(PID.TID 0000.0001) // =======================================================
(PID.TID 0000.0001) // Begin MONITOR dynamic field statistics
(PID.TID 0000.0001) // =======================================================
(PID.TID 0000.0001) %MON time_tsnumber                =                  1552
(PID.TID 0000.0001) %MON time_secondsf                =   1.5520000000000E+05
(PID.TID 0000.0001) %MON dynstat_eta_max              =   5.8052965192548E+00
(PID.TID 0000.0001) %MON dynstat_eta_min              =  -1.4196321445794E+01
(PID.TID 0000.0001) %MON dynstat_eta_mean             =  -2.5042573141109E+00
(PID.TID 0000.0001) %MON dynstat_eta_sd               =   4.9502316403371E+00
(PID.TID 0000.0001) %MON dynstat_eta_del2             =   2.0717419244787E-01
(PID.TID 0000.0001) %MON dynstat_uvel_max             =   1.6283974945654E-02
(PID.TID 0000.0001) %MON dynstat_uvel_min             =  -7.1222493509725E-02
(PID.TID 0000.0001) %MON dynstat_uvel_mean            =  -1.0336761504388E-07
(PID.TID 0000.0001) %MON dynstat_uvel_sd              =   2.1260160145100E-03
(PID.TID 0000.0001) %MON dynstat_uvel_del2            =   3.3471796782796E-06
(PID.TID 0000.0001) %MON dynstat_vvel_max             =   4.2468900876238E-02
(PID.TID 0000.0001) %MON dynstat_vvel_min             =  -2.5697395462558E-02
(PID.TID 0000.0001) %MON dynstat_vvel_mean            =   1.5254095974551E-05
(PID.TID 0000.0001) %MON dynstat_vvel_sd              =   1.0959235059878E-03
(PID.TID 0000.0001) %MON dynstat_vvel_del2            =   2.2754187572009E-06
(PID.TID 0000.0001) %MON dynstat_wvel_max             =   2.3950445382233E-03
(PID.TID 0000.0001) %MON dynstat_wvel_min             =  -2.3578386160120E-03
(PID.TID 0000.0001) %MON dynstat_wvel_mean            =   7.4604838536182E-09
(PID.TID 0000.0001) %MON dynstat_wvel_sd              =   4.0495678559161E-05
(PID.TID 0000.0001) %MON dynstat_wvel_del2            =   1.5776262418218E-07
(PID.TID 0000.0001) %MON dynstat_theta_max            =   1.2000000000000E+00
(PID.TID 0000.0001) %MON dynstat_theta_min            =  -1.0000000000000E+00
(PID.TID 0000.0001) %MON dynstat_theta_mean           =   5.6806807521091E-01
(PID.TID 0000.0001) %MON dynstat_theta_sd             =   8.6803311620673E-01
(PID.TID 0000.0001) %MON dynstat_theta_del2           =   7.1181064898959E-06
(PID.TID 0000.0001) %MON dynstat_salt_max             =   3.4700000000000E+01
(PID.TID 0000.0001) %MON dynstat_salt_min             =   3.4000000000000E+01
(PID.TID 0000.0001) %MON dynstat_salt_mean            =   3.4498841217061E+01
(PID.TID 0000.0001) %MON dynstat_salt_sd              =   2.7615662561628E-01
(PID.TID 0000.0001) %MON dynstat_salt_del2            =   2.8225160079513E-06
(PID.TID 0000.0001) %MON advcfl_uvel_max              =   7.1222493509725E-03
(PID.TID 0000.0001) %MON advcfl_vvel_max              =   4.2468900876238E-03
(PID.TID 0000.0001) %MON advcfl_wvel_max              =   1.1975222691117E-02
(PID.TID 0000.0001) %MON advcfl_W_hf_max              =   1.1975222691117E-02
(PID.TID 0000.0001) %MON pe_b_mean                    =  -8.2962285640559E-01
(PID.TID 0000.0001) %MON ke_max                       =   2.3004717509659E-03
(PID.TID 0000.0001) %MON ke_mean                      =   2.8157857635018E-06
(PID.TID 0000.0001) %MON ke_vol                       =   4.2724647103950E+12
(PID.TID 0000.0001) // =======================================================
(PID.TID 0000.0001) // End MONITOR dynamic field statistics
(PID.TID 0000.0001) // =======================================================
(PID.TID 0000.0001) // =======================================================
(PID.TID 0000.0001) // Begin OBCS MONITOR field statistics
(PID.TID 0000.0001) // =======================================================
(PID.TID 0000.0001) %MON obc_N_vVel_max               =   1.4936994254975E-05
(PID.TID 0000.0001) %MON obc_N_vVel_min               =   1.4936994254974E-05
(PID.TID 0000.0001) %MON obc_N_vVel_mean              =   1.4936994254975E-05
(PID.TID 0000.0001) %MON obc_N_vVel_sd                =  -8.4269024903840E-24
(PID.TID 0000.0001) %MON obc_N_vVel_Int               =   9.8584162082834E+02
(PID.TID 0000.0001) // =======================================================
(PID.TID 0000.0001) // End OBCS MONITOR field statistics
(PID.TID 0000.0001) // =======================================================
 cg2d: Sum(rhs),rhsMax =   4.50807577386038E+00  2.99972515322084E+02
(PID.TID 0000.0001)      cg2d_init_res =   1.26271587355586E-05
(PID.TID 0000.0001)      cg2d_iters(min,last) =      -1      85
(PID.TID 0000.0001)      cg2d_last_res =   9.11166471242244E-12
(PID.TID 0000.0001) // =======================================================
(PID.TID 0000.0001) // Begin MONITOR dynamic field statistics
(PID.TID 0000.0001) // =======================================================
(PID.TID 0000.0001) %MON time_tsnumber                =                  1553
(PID.TID 0000.0001) %MON time_secondsf                =   1.5530000000000E+05
(PID.TID 0000.0001) %MON dynstat_eta_max              =   5.8053393504315E+00
(PID.TID 0000.0001) %MON dynstat_eta_min              =  -1.4196351295986E+01
(PID.TID 0000.0001) %MON dynstat_eta_mean             =  -2.5042570910138E+00
(PID.TID 0000.0001) %MON dynstat_eta_sd               =   4.9502322723093E+00
(PID.TID 0000.0001) %MON dynstat_eta_del2             =   2.0717425673877E-01
(PID.TID 0000.0001) %MON dynstat_uvel_max             =   1.6317875807710E-02
(PID.TID 0000.0001) %MON dynstat_uvel_min             =  -7.1342362051855E-02
(PID.TID 0000.0001) %MON dynstat_uvel_mean            =  -1.0338819071492E-07
(PID.TID 0000.0001) %MON dynstat_uvel_sd              =   2.1303779812886E-03
(PID.TID 0000.0001) %MON dynstat_uvel_del2            =   3.3551780557026E-06
(PID.TID 0000.0001) %MON dynstat_vvel_max             =   4.2512762324366E-02
(PID.TID 0000.0001) %MON dynstat_vvel_min             =  -2.5753663437571E-02
(PID.TID 0000.0001) %MON dynstat_vvel_mean            =   1.5254718060825E-05
(PID.TID 0000.0001) %MON dynstat_vvel_sd              =   1.0979853058517E-03
(PID.TID 0000.0001) %MON dynstat_vvel_del2            =   2.2797465660322E-06
(PID.TID 0000.0001) %MON dynstat_wvel_max             =   2.3979126055370E-03
(PID.TID 0000.0001) %MON dynstat_wvel_min             =  -2.3609453457440E-03
(PID.TID 0000.0001) %MON dynstat_wvel_mean            =   7.4696020018101E-09
(PID.TID 0000.0001) %MON dynstat_wvel_sd              =   4.0582763649517E-05
(PID.TID 0000.0001) %MON dynstat_wvel_del2            =   1.5804600851120E-07
(PID.TID 0000.0001) %MON dynstat_theta_max            =   1.2000000000000E+00
(PID.TID 0000.0001) %MON dynstat_theta_min            =  -1.0000000000000E+00
(PID.TID 0000.0001) %MON dynstat_theta_mean           =   5.6806606654155E-01
(PID.TID 0000.0001) %MON dynstat_theta_sd             =   8.6803210375884E-01
(PID.TID 0000.0001) %MON dynstat_theta_del2           =   7.1307042638319E-06
(PID.TID 0000.0001) %MON dynstat_salt_max             =   3.4700000000000E+01
(PID.TID 0000.0001) %MON dynstat_salt_min             =   3.4000000000000E+01
(PID.TID 0000.0001) %MON dynstat_salt_mean            =   3.4498840412968E+01
(PID.TID 0000.0001) %MON dynstat_salt_sd              =   2.7615624178447E-01
(PID.TID 0000.0001) %MON dynstat_salt_del2            =   2.8275259477961E-06
(PID.TID 0000.0001) %MON advcfl_uvel_max              =   7.1342362051855E-03
(PID.TID 0000.0001) %MON advcfl_vvel_max              =   4.2512762324366E-03
(PID.TID 0000.0001) %MON advcfl_wvel_max              =   1.1989563027685E-02
(PID.TID 0000.0001) %MON advcfl_W_hf_max              =   1.1989563027685E-02
(PID.TID 0000.0001) %MON pe_b_mean                    =  -8.2962189623020E-01
(PID.TID 0000.0001) %MON ke_max                       =   2.3099956959591E-03
(PID.TID 0000.0001) %MON ke_mean                      =   2.8271464887126E-06
(PID.TID 0000.0001) %MON ke_vol                       =   4.2724647115542E+12
(PID.TID 0000.0001) // =======================================================
(PID.TID 0000.0001) // End MONITOR dynamic field statistics
(PID.TID 0000.0001) // =======================================================
(PID.TID 0000.0001) // =======================================================
(PID.TID 0000.0001) // Begin OBCS MONITOR field statistics
(PID.TID 0000.0001) // =======================================================
(PID.TID 0000.0001) %MON obc_N_vVel_max               =   1.4936864912476E-05
(PID.TID 0000.0001) %MON obc_N_vVel_min               =   1.4936864912476E-05
(PID.TID 0000.0001) %MON obc_N_vVel_mean              =   1.4936864912476E-05
(PID.TID 0000.0001) %MON obc_N_vVel_sd                =  -5.5059209523061E-24
(PID.TID 0000.0001) %MON obc_N_vVel_Int               =   9.8583308422342E+02
(PID.TID 0000.0001) // =======================================================
(PID.TID 0000.0001) // End OBCS MONITOR field statistics
(PID.TID 0000.0001) // =======================================================
 cg2d: Sum(rhs),rhsMax =   4.50807412006346E+00  2.99972595408684E+02
(PID.TID 0000.0001)      cg2d_init_res =   1.26461229063298E-05
(PID.TID 0000.0001)      cg2d_iters(min,last) =      -1      85
(PID.TID 0000.0001)      cg2d_last_res =   9.12200208960861E-12
(PID.TID 0000.0001) // =======================================================
(PID.TID 0000.0001) // Begin MONITOR dynamic field statistics
(PID.TID 0000.0001) // =======================================================
(PID.TID 0000.0001) %MON time_tsnumber                =                  1554
(PID.TID 0000.0001) %MON time_secondsf                =   1.5540000000000E+05
(PID.TID 0000.0001) %MON dynstat_eta_max              =   5.8053822969372E+00
(PID.TID 0000.0001) %MON dynstat_eta_min              =  -1.4196381148008E+01
(PID.TID 0000.0001) %MON dynstat_eta_mean             =  -2.5042568409077E+00
(PID.TID 0000.0001) %MON dynstat_eta_sd               =   4.9502328971208E+00
(PID.TID 0000.0001) %MON dynstat_eta_del2             =   2.0717432111546E-01
(PID.TID 0000.0001) %MON dynstat_uvel_max             =   1.6351825040019E-02
(PID.TID 0000.0001) %MON dynstat_uvel_min             =  -7.1462203975523E-02
(PID.TID 0000.0001) %MON dynstat_uvel_mean            =  -1.0340846038109E-07
(PID.TID 0000.0001) %MON dynstat_uvel_sd              =   2.1347460324999E-03
(PID.TID 0000.0001) %MON dynstat_uvel_del2            =   3.3631936414717E-06
(PID.TID 0000.0001) %MON dynstat_vvel_max             =   4.2556569683355E-02
(PID.TID 0000.0001) %MON dynstat_vvel_min             =  -2.5809995454393E-02
(PID.TID 0000.0001) %MON dynstat_vvel_mean            =   1.5256336562756E-05
(PID.TID 0000.0001) %MON dynstat_vvel_sd              =   1.1000498250467E-03
(PID.TID 0000.0001) %MON dynstat_vvel_del2            =   2.2840802991255E-06
(PID.TID 0000.0001) %MON dynstat_wvel_max             =   2.4007768528416E-03
(PID.TID 0000.0001) %MON dynstat_wvel_min             =  -2.3640465402403E-03
(PID.TID 0000.0001) %MON dynstat_wvel_mean            =   7.4799252965810E-09
(PID.TID 0000.0001) %MON dynstat_wvel_sd              =   4.0668266870576E-05
(PID.TID 0000.0001) %MON dynstat_wvel_del2            =   1.5832864914048E-07
(PID.TID 0000.0001) %MON dynstat_theta_max            =   1.2000000000000E+00
(PID.TID 0000.0001) %MON dynstat_theta_min            =  -1.0000000000000E+00
(PID.TID 0000.0001) %MON dynstat_theta_mean           =   5.6806405453908E-01
(PID.TID 0000.0001) %MON dynstat_theta_sd             =   8.6803108993251E-01
(PID.TID 0000.0001) %MON dynstat_theta_del2           =   7.1433181423372E-06
(PID.TID 0000.0001) %MON dynstat_salt_max             =   3.4700000000000E+01
(PID.TID 0000.0001) %MON dynstat_salt_min             =   3.4000000000000E+01
(PID.TID 0000.0001) %MON dynstat_salt_mean            =   3.4498839607541E+01
(PID.TID 0000.0001) %MON dynstat_salt_sd              =   2.7615585746158E-01
(PID.TID 0000.0001) %MON dynstat_salt_del2            =   2.8325421652992E-06
(PID.TID 0000.0001) %MON advcfl_uvel_max              =   7.1462203975523E-03
(PID.TID 0000.0001) %MON advcfl_vvel_max              =   4.2556569683355E-03
(PID.TID 0000.0001) %MON advcfl_wvel_max              =   1.2003884264208E-02
(PID.TID 0000.0001) %MON advcfl_W_hf_max              =   1.2003884264208E-02
(PID.TID 0000.0001) %MON pe_b_mean                    =  -8.2962092683136E-01
(PID.TID 0000.0001) %MON ke_max                       =   2.3195462586106E-03
(PID.TID 0000.0001) %MON ke_mean                      =   2.8385458519945E-06
(PID.TID 0000.0001) %MON ke_vol                       =   4.2724647128794E+12
(PID.TID 0000.0001) // =======================================================
(PID.TID 0000.0001) // End MONITOR dynamic field statistics
(PID.TID 0000.0001) // =======================================================
(PID.TID 0000.0001) // =======================================================
(PID.TID 0000.0001) // Begin OBCS MONITOR field statistics
(PID.TID 0000.0001) // =======================================================
(PID.TID 0000.0001) %MON obc_N_vVel_max               =   1.4937600353462E-05
(PID.TID 0000.0001) %MON obc_N_vVel_min               =   1.4937600353461E-05
(PID.TID 0000.0001) %MON obc_N_vVel_mean              =   1.4937600353462E-05
(PID.TID 0000.0001) %MON obc_N_vVel_sd                =  -1.4553208902105E-23
(PID.TID 0000.0001) %MON obc_N_vVel_Int               =   9.8588162332849E+02
(PID.TID 0000.0001) // =======================================================
(PID.TID 0000.0001) // End OBCS MONITOR field statistics
(PID.TID 0000.0001) // =======================================================
 cg2d: Sum(rhs),rhsMax =   4.50807241716048E+00  2.99972675637821E+02
(PID.TID 0000.0001)      cg2d_init_res =   1.26651795396846E-05
(PID.TID 0000.0001)      cg2d_iters(min,last) =      -1      85
(PID.TID 0000.0001)      cg2d_last_res =   9.13223638522585E-12
(PID.TID 0000.0001) // =======================================================
(PID.TID 0000.0001) // Begin MONITOR dynamic field statistics
(PID.TID 0000.0001) // =======================================================
(PID.TID 0000.0001) %MON time_tsnumber                =                  1555
(PID.TID 0000.0001) %MON time_secondsf                =   1.5550000000000E+05
(PID.TID 0000.0001) %MON dynstat_eta_max              =   5.8054253570273E+00
(PID.TID 0000.0001) %MON dynstat_eta_min              =  -1.4196411002755E+01
(PID.TID 0000.0001) %MON dynstat_eta_mean             =  -2.5042565647124E+00
(PID.TID 0000.0001) %MON dynstat_eta_sd               =   4.9502335150450E+00
(PID.TID 0000.0001) %MON dynstat_eta_del2             =   2.0717438557801E-01
(PID.TID 0000.0001) %MON dynstat_uvel_max             =   1.6385822675163E-02
(PID.TID 0000.0001) %MON dynstat_uvel_min             =  -7.1582018545505E-02
(PID.TID 0000.0001) %MON dynstat_uvel_mean            =  -1.0342729033943E-07
(PID.TID 0000.0001) %MON dynstat_uvel_sd              =   2.1391201631093E-03
(PID.TID 0000.0001) %MON dynstat_uvel_del2            =   3.3712264501966E-06
(PID.TID 0000.0001) %MON dynstat_vvel_max             =   4.2600322754423E-02
(PID.TID 0000.0001) %MON dynstat_vvel_min             =  -2.5866391088940E-02
(PID.TID 0000.0001) %MON dynstat_vvel_mean            =   1.5258922231852E-05
(PID.TID 0000.0001) %MON dynstat_vvel_sd              =   1.1021169041069E-03
(PID.TID 0000.0001) %MON dynstat_vvel_del2            =   2.2884194803800E-06
(PID.TID 0000.0001) %MON dynstat_wvel_max             =   2.4036373052353E-03
(PID.TID 0000.0001) %MON dynstat_wvel_min             =  -2.3671420458060E-03
(PID.TID 0000.0001) %MON dynstat_wvel_mean            =   7.4912510612994E-09
(PID.TID 0000.0001) %MON dynstat_wvel_sd              =   4.0751651935911E-05
(PID.TID 0000.0001) %MON dynstat_wvel_del2            =   1.5860889135830E-07
(PID.TID 0000.0001) %MON dynstat_theta_max            =   1.2000000000000E+00
(PID.TID 0000.0001) %MON dynstat_theta_min            =  -1.0000000000000E+00
(PID.TID 0000.0001) %MON dynstat_theta_mean           =   5.6806203920244E-01
(PID.TID 0000.0001) %MON dynstat_theta_sd             =   8.6803007472725E-01
(PID.TID 0000.0001) %MON dynstat_theta_del2           =   7.1559487752931E-06
(PID.TID 0000.0001) %MON dynstat_salt_max             =   3.4700000000000E+01
(PID.TID 0000.0001) %MON dynstat_salt_min             =   3.4000000000000E+01
(PID.TID 0000.0001) %MON dynstat_salt_mean            =   3.4498838800779E+01
(PID.TID 0000.0001) %MON dynstat_salt_sd              =   2.7615547264758E-01
(PID.TID 0000.0001) %MON dynstat_salt_del2            =   2.8375647680210E-06
(PID.TID 0000.0001) %MON advcfl_uvel_max              =   7.1582018545505E-03
(PID.TID 0000.0001) %MON advcfl_vvel_max              =   4.2600322754423E-03
(PID.TID 0000.0001) %MON advcfl_wvel_max              =   1.2018186526177E-02
(PID.TID 0000.0001) %MON advcfl_W_hf_max              =   1.2018186526177E-02
(PID.TID 0000.0001) %MON pe_b_mean                    =  -8.2961994844097E-01
(PID.TID 0000.0001) %MON ke_max                       =   2.3291234309794E-03
(PID.TID 0000.0001) %MON ke_mean                      =   2.8499837616081E-06
(PID.TID 0000.0001) %MON ke_vol                       =   4.2724647143650E+12
(PID.TID 0000.0001) // =======================================================
(PID.TID 0000.0001) // End MONITOR dynamic field statistics
(PID.TID 0000.0001) // =======================================================
(PID.TID 0000.0001) // =======================================================
(PID.TID 0000.0001) // Begin OBCS MONITOR field statistics
(PID.TID 0000.0001) // =======================================================
(PID.TID 0000.0001) %MON obc_N_vVel_max               =   1.4939188285653E-05
(PID.TID 0000.0001) %MON obc_N_vVel_min               =   1.4939188285653E-05
(PID.TID 0000.0001) %MON obc_N_vVel_mean              =   1.4939188285653E-05
(PID.TID 0000.0001) %MON obc_N_vVel_sd                =   5.1973663406272E-12
(PID.TID 0000.0001) %MON obc_N_vVel_Int               =   9.8598642685308E+02
(PID.TID 0000.0001) // =======================================================
(PID.TID 0000.0001) // End OBCS MONITOR field statistics
(PID.TID 0000.0001) // =======================================================
 cg2d: Sum(rhs),rhsMax =   4.50807066671704E+00  2.99972756011328E+02
(PID.TID 0000.0001)      cg2d_init_res =   1.26842656083686E-05
(PID.TID 0000.0001)      cg2d_iters(min,last) =      -1      85
(PID.TID 0000.0001)      cg2d_last_res =   9.14229301140080E-12
(PID.TID 0000.0001) // =======================================================
(PID.TID 0000.0001) // Begin MONITOR dynamic field statistics
(PID.TID 0000.0001) // =======================================================
(PID.TID 0000.0001) %MON time_tsnumber                =                  1556
(PID.TID 0000.0001) %MON time_secondsf                =   1.5560000000000E+05
(PID.TID 0000.0001) %MON dynstat_eta_max              =   5.8054685290707E+00
(PID.TID 0000.0001) %MON dynstat_eta_min              =  -1.4196440861041E+01
(PID.TID 0000.0001) %MON dynstat_eta_mean             =  -2.5042562633128E+00
(PID.TID 0000.0001) %MON dynstat_eta_sd               =   4.9502341263295E+00
(PID.TID 0000.0001) %MON dynstat_eta_del2             =   2.0717445012655E-01
(PID.TID 0000.0001) %MON dynstat_uvel_max             =   1.6419868747320E-02
(PID.TID 0000.0001) %MON dynstat_uvel_min             =  -7.1701805032694E-02
(PID.TID 0000.0001) %MON dynstat_uvel_mean            =  -1.0344358529223E-07
(PID.TID 0000.0001) %MON dynstat_uvel_sd              =   2.1435003681251E-03
(PID.TID 0000.0001) %MON dynstat_uvel_del2            =   3.3792764959190E-06
(PID.TID 0000.0001) %MON dynstat_vvel_max             =   4.2644021333564E-02
(PID.TID 0000.0001) %MON dynstat_vvel_min             =  -2.5922849915739E-02
(PID.TID 0000.0001) %MON dynstat_vvel_mean            =   1.5262424360215E-05
(PID.TID 0000.0001) %MON dynstat_vvel_sd              =   1.1041864083110E-03
(PID.TID 0000.0001) %MON dynstat_vvel_del2            =   2.2927636892416E-06
(PID.TID 0000.0001) %MON dynstat_wvel_max             =   2.4064939787090E-03
(PID.TID 0000.0001) %MON dynstat_wvel_min             =  -2.3702317076383E-03
(PID.TID 0000.0001) %MON dynstat_wvel_mean            =   7.5033558357730E-09
(PID.TID 0000.0001) %MON dynstat_wvel_sd              =   4.0832466672657E-05
(PID.TID 0000.0001) %MON dynstat_wvel_del2            =   1.5888512354942E-07
(PID.TID 0000.0001) %MON dynstat_theta_max            =   1.2000000000000E+00
(PID.TID 0000.0001) %MON dynstat_theta_min            =  -1.0000000000000E+00
(PID.TID 0000.0001) %MON dynstat_theta_mean           =   5.6806002053045E-01
(PID.TID 0000.0001) %MON dynstat_theta_sd             =   8.6802905814390E-01
(PID.TID 0000.0001) %MON dynstat_theta_del2           =   7.1685967041418E-06
(PID.TID 0000.0001) %MON dynstat_salt_max             =   3.4700000000000E+01
(PID.TID 0000.0001) %MON dynstat_salt_min             =   3.4000000000000E+01
(PID.TID 0000.0001) %MON dynstat_salt_mean            =   3.4498837992683E+01
(PID.TID 0000.0001) %MON dynstat_salt_sd              =   2.7615508734278E-01
(PID.TID 0000.0001) %MON dynstat_salt_del2            =   2.8425938251798E-06
(PID.TID 0000.0001) %MON advcfl_uvel_max              =   7.1701805032694E-03
(PID.TID 0000.0001) %MON advcfl_vvel_max              =   4.2644021333564E-03
(PID.TID 0000.0001) %MON advcfl_wvel_max              =   1.2032469893545E-02
(PID.TID 0000.0001) %MON advcfl_W_hf_max              =   1.2032469893545E-02
(PID.TID 0000.0001) %MON pe_b_mean                    =  -8.2961896127672E-01
(PID.TID 0000.0001) %MON ke_max                       =   2.3387272048245E-03
(PID.TID 0000.0001) %MON ke_mean                      =   2.8614601516269E-06
(PID.TID 0000.0001) %MON ke_vol                       =   4.2724647160056E+12
(PID.TID 0000.0001) // =======================================================
(PID.TID 0000.0001) // End MONITOR dynamic field statistics
(PID.TID 0000.0001) // =======================================================
(PID.TID 0000.0001) // =======================================================
(PID.TID 0000.0001) // Begin OBCS MONITOR field statistics
(PID.TID 0000.0001) // =======================================================
(PID.TID 0000.0001) %MON obc_N_vVel_max               =   1.4941597379679E-05
(PID.TID 0000.0001) %MON obc_N_vVel_min               =   1.4941597379679E-05
(PID.TID 0000.0001) %MON obc_N_vVel_mean              =   1.4941597379679E-05
(PID.TID 0000.0001) %MON obc_N_vVel_sd                =   3.3801526904696E-12
(PID.TID 0000.0001) %MON obc_N_vVel_Int               =   9.8614542705878E+02
(PID.TID 0000.0001) // =======================================================
(PID.TID 0000.0001) // End OBCS MONITOR field statistics
(PID.TID 0000.0001) // =======================================================
 cg2d: Sum(rhs),rhsMax =   4.50806887022721E+00  2.99972836529229E+02
(PID.TID 0000.0001)      cg2d_init_res =   1.27033304560709E-05
(PID.TID 0000.0001)      cg2d_iters(min,last) =      -1      85
(PID.TID 0000.0001)      cg2d_last_res =   9.15205895716321E-12
(PID.TID 0000.0001) // =======================================================
(PID.TID 0000.0001) // Begin MONITOR dynamic field statistics
(PID.TID 0000.0001) // =======================================================
(PID.TID 0000.0001) %MON time_tsnumber                =                  1557
(PID.TID 0000.0001) %MON time_secondsf                =   1.5570000000000E+05
(PID.TID 0000.0001) %MON dynstat_eta_max              =   5.8055118115881E+00
(PID.TID 0000.0001) %MON dynstat_eta_min              =  -1.4196470723589E+01
(PID.TID 0000.0001) %MON dynstat_eta_mean             =  -2.5042559375392E+00
(PID.TID 0000.0001) %MON dynstat_eta_sd               =   4.9502347311873E+00
(PID.TID 0000.0001) %MON dynstat_eta_del2             =   2.0717451476105E-01
(PID.TID 0000.0001) %MON dynstat_uvel_max             =   1.6453963291866E-02
(PID.TID 0000.0001) %MON dynstat_uvel_min             =  -7.1821562714365E-02
(PID.TID 0000.0001) %MON dynstat_uvel_mean            =  -1.0345631631152E-07
(PID.TID 0000.0001) %MON dynstat_uvel_sd              =   2.1478866425903E-03
(PID.TID 0000.0001) %MON dynstat_uvel_del2            =   3.3873437919128E-06
(PID.TID 0000.0001) %MON dynstat_vvel_max             =   4.2687665212512E-02
(PID.TID 0000.0001) %MON dynstat_vvel_min             =  -2.5979371507724E-02
(PID.TID 0000.0001) %MON dynstat_vvel_mean            =   1.5266772112714E-05
(PID.TID 0000.0001) %MON dynstat_vvel_sd              =   1.1062582322832E-03
(PID.TID 0000.0001) %MON dynstat_vvel_del2            =   2.2971125792949E-06
(PID.TID 0000.0001) %MON dynstat_wvel_max             =   2.4093468837250E-03
(PID.TID 0000.0001) %MON dynstat_wvel_min             =  -2.3733153697155E-03
(PID.TID 0000.0001) %MON dynstat_wvel_mean            =   7.5160008626023E-09
(PID.TID 0000.0001) %MON dynstat_wvel_sd              =   4.0910360396612E-05
(PID.TID 0000.0001) %MON dynstat_wvel_del2            =   1.5915585702035E-07
(PID.TID 0000.0001) %MON dynstat_theta_max            =   1.2000000000000E+00
(PID.TID 0000.0001) %MON dynstat_theta_min            =  -1.0000000000000E+00
(PID.TID 0000.0001) %MON dynstat_theta_mean           =   5.6805799852173E-01
(PID.TID 0000.0001) %MON dynstat_theta_sd             =   8.6802804018334E-01
(PID.TID 0000.0001) %MON dynstat_theta_del2           =   7.1812618457444E-06
(PID.TID 0000.0001) %MON dynstat_salt_max             =   3.4700000000000E+01
(PID.TID 0000.0001) %MON dynstat_salt_min             =   3.4000000000000E+01
(PID.TID 0000.0001) %MON dynstat_salt_mean            =   3.4498837183250E+01
(PID.TID 0000.0001) %MON dynstat_salt_sd              =   2.7615470154779E-01
(PID.TID 0000.0001) %MON dynstat_salt_del2            =   2.8476293517695E-06
(PID.TID 0000.0001) %MON advcfl_uvel_max              =   7.1821562714365E-03
(PID.TID 0000.0001) %MON advcfl_vvel_max              =   4.2687665212512E-03
(PID.TID 0000.0001) %MON advcfl_wvel_max              =   1.2046734418625E-02
(PID.TID 0000.0001) %MON advcfl_W_hf_max              =   1.2046734418625E-02
(PID.TID 0000.0001) %MON pe_b_mean                    =  -8.2961796553706E-01
(PID.TID 0000.0001) %MON ke_max                       =   2.3483575716161E-03
(PID.TID 0000.0001) %MON ke_mean                      =   2.8729749872819E-06
(PID.TID 0000.0001) %MON ke_vol                       =   4.2724647177959E+12
(PID.TID 0000.0001) // =======================================================
(PID.TID 0000.0001) // End MONITOR dynamic field statistics
(PID.TID 0000.0001) // =======================================================
(PID.TID 0000.0001) // =======================================================
(PID.TID 0000.0001) // Begin OBCS MONITOR field statistics
(PID.TID 0000.0001) // =======================================================
(PID.TID 0000.0001) %MON obc_N_vVel_max               =   1.4944778139405E-05
(PID.TID 0000.0001) %MON obc_N_vVel_min               =   1.4944778139405E-05
(PID.TID 0000.0001) %MON obc_N_vVel_mean              =   1.4944778139405E-05
(PID.TID 0000.0001) %MON obc_N_vVel_sd                =  -2.3161057151485E-23
(PID.TID 0000.0001) %MON obc_N_vVel_Int               =   9.8635535720074E+02
(PID.TID 0000.0001) // =======================================================
(PID.TID 0000.0001) // End OBCS MONITOR field statistics
(PID.TID 0000.0001) // =======================================================
 cg2d: Sum(rhs),rhsMax =   4.50806702907884E+00  2.99972917189722E+02
(PID.TID 0000.0001)      cg2d_init_res =   1.27223240666279E-05
(PID.TID 0000.0001)      cg2d_iters(min,last) =      -1      85
(PID.TID 0000.0001)      cg2d_last_res =   9.16144556318157E-12
(PID.TID 0000.0001) // =======================================================
(PID.TID 0000.0001) // Begin MONITOR dynamic field statistics
(PID.TID 0000.0001) // =======================================================
(PID.TID 0000.0001) %MON time_tsnumber                =                  1558
(PID.TID 0000.0001) %MON time_secondsf                =   1.5580000000000E+05
(PID.TID 0000.0001) %MON dynstat_eta_max              =   5.8055552032858E+00
(PID.TID 0000.0001) %MON dynstat_eta_min              =  -1.4196500591010E+01
(PID.TID 0000.0001) %MON dynstat_eta_mean             =  -2.5042555881474E+00
(PID.TID 0000.0001) %MON dynstat_eta_sd               =   4.9502353297923E+00
(PID.TID 0000.0001) %MON dynstat_eta_del2             =   2.0717457948144E-01
(PID.TID 0000.0001) %MON dynstat_uvel_max             =   1.6488106345564E-02
(PID.TID 0000.0001) %MON dynstat_uvel_min             =  -7.1941290874292E-02
(PID.TID 0000.0001) %MON dynstat_uvel_mean            =  -1.0346453046983E-07
(PID.TID 0000.0001) %MON dynstat_uvel_sd              =   2.1522789815778E-03
(PID.TID 0000.0001) %MON dynstat_uvel_del2            =   3.3954283509380E-06
(PID.TID 0000.0001) %MON dynstat_vvel_max             =   4.2731254179205E-02
(PID.TID 0000.0001) %MON dynstat_vvel_min             =  -2.6035955435715E-02
(PID.TID 0000.0001) %MON dynstat_vvel_mean            =   1.5271876296907E-05
(PID.TID 0000.0001) %MON dynstat_vvel_sd              =   1.1083323035126E-03
(PID.TID 0000.0001) %MON dynstat_vvel_del2            =   2.3014658952927E-06
(PID.TID 0000.0001) %MON dynstat_wvel_max             =   2.4121960264754E-03
(PID.TID 0000.0001) %MON dynstat_wvel_min             =  -2.3763928749995E-03
(PID.TID 0000.0001) %MON dynstat_wvel_mean            =   7.5289375788202E-09
(PID.TID 0000.0001) %MON dynstat_wvel_sd              =   4.0985097779059E-05
(PID.TID 0000.0001) %MON dynstat_wvel_del2            =   1.5941980575608E-07
(PID.TID 0000.0001) %MON dynstat_theta_max            =   1.2000000000000E+00
(PID.TID 0000.0001) %MON dynstat_theta_min            =  -1.0000000000000E+00
(PID.TID 0000.0001) %MON dynstat_theta_mean           =   5.6805597317465E-01
(PID.TID 0000.0001) %MON dynstat_theta_sd             =   8.6802702084793E-01
(PID.TID 0000.0001) %MON dynstat_theta_del2           =   7.1939452514556E-06
(PID.TID 0000.0001) %MON dynstat_salt_max             =   3.4700000000000E+01
(PID.TID 0000.0001) %MON dynstat_salt_min             =   3.4000000000000E+01
(PID.TID 0000.0001) %MON dynstat_salt_mean            =   3.4498836372481E+01
(PID.TID 0000.0001) %MON dynstat_salt_sd              =   2.7615431526321E-01
(PID.TID 0000.0001) %MON dynstat_salt_del2            =   2.8526715148851E-06
(PID.TID 0000.0001) %MON advcfl_uvel_max              =   7.1941290874292E-03
(PID.TID 0000.0001) %MON advcfl_vvel_max              =   4.2731254179205E-03
(PID.TID 0000.0001) %MON advcfl_wvel_max              =   1.2060980132377E-02
(PID.TID 0000.0001) %MON advcfl_W_hf_max              =   1.2060980132377E-02
(PID.TID 0000.0001) %MON pe_b_mean                    =  -8.2961696139660E-01
(PID.TID 0000.0001) %MON ke_max                       =   2.3580145225499E-03
(PID.TID 0000.0001) %MON ke_mean                      =   2.8845282691773E-06
(PID.TID 0000.0001) %MON ke_vol                       =   4.2724647197310E+12
(PID.TID 0000.0001) // =======================================================
(PID.TID 0000.0001) // End MONITOR dynamic field statistics
(PID.TID 0000.0001) // =======================================================
(PID.TID 0000.0001) // =======================================================
(PID.TID 0000.0001) // Begin OBCS MONITOR field statistics
(PID.TID 0000.0001) // =======================================================
(PID.TID 0000.0001) %MON obc_N_vVel_max               =   1.4948664164612E-05
(PID.TID 0000.0001) %MON obc_N_vVel_min               =   1.4948664164612E-05
(PID.TID 0000.0001) %MON obc_N_vVel_mean              =   1.4948664164612E-05
(PID.TID 0000.0001) %MON obc_N_vVel_sd                =  -1.5768130426792E-24
(PID.TID 0000.0001) %MON obc_N_vVel_Int               =   9.8661183486439E+02
(PID.TID 0000.0001) // =======================================================
(PID.TID 0000.0001) // End OBCS MONITOR field statistics
(PID.TID 0000.0001) // =======================================================
 cg2d: Sum(rhs),rhsMax =   4.50806514452415E+00  2.99972997989219E+02
(PID.TID 0000.0001)      cg2d_init_res =   1.27411930058966E-05
(PID.TID 0000.0001)      cg2d_iters(min,last) =      -1      85
(PID.TID 0000.0001)      cg2d_last_res =   9.17040106491829E-12
(PID.TID 0000.0001) // =======================================================
(PID.TID 0000.0001) // Begin MONITOR dynamic field statistics
(PID.TID 0000.0001) // =======================================================
(PID.TID 0000.0001) %MON time_tsnumber                =                  1559
(PID.TID 0000.0001) %MON time_secondsf                =   1.5590000000000E+05
(PID.TID 0000.0001) %MON dynstat_eta_max              =   5.8055987030847E+00
(PID.TID 0000.0001) %MON dynstat_eta_min              =  -1.4196530463800E+01
(PID.TID 0000.0001) %MON dynstat_eta_mean             =  -2.5042552158030E+00
(PID.TID 0000.0001) %MON dynstat_eta_sd               =   4.9502359222725E+00
(PID.TID 0000.0001) %MON dynstat_eta_del2             =   2.0717464428758E-01
(PID.TID 0000.0001) %MON dynstat_uvel_max             =   1.6522297946082E-02
(PID.TID 0000.0001) %MON dynstat_uvel_min             =  -7.2060988803462E-02
(PID.TID 0000.0001) %MON dynstat_uvel_mean            =  -1.0346740502832E-07
(PID.TID 0000.0001) %MON dynstat_uvel_sd              =   2.1566773801749E-03
(PID.TID 0000.0001) %MON dynstat_uvel_del2            =   3.4035301830850E-06
(PID.TID 0000.0001) %MON dynstat_vvel_max             =   4.2774788018542E-02
(PID.TID 0000.0001) %MON dynstat_vvel_min             =  -2.6092601268086E-02
(PID.TID 0000.0001) %MON dynstat_vvel_mean            =   1.5277631539988E-05
(PID.TID 0000.0001) %MON dynstat_vvel_sd              =   1.1104085847398E-03
(PID.TID 0000.0001) %MON dynstat_vvel_del2            =   2.3058234896306E-06
(PID.TID 0000.0001) %MON dynstat_wvel_max             =   2.4150414101309E-03
(PID.TID 0000.0001) %MON dynstat_wvel_min             =  -2.3794640652548E-03
(PID.TID 0000.0001) %MON dynstat_wvel_mean            =   7.5419135282747E-09
(PID.TID 0000.0001) %MON dynstat_wvel_sd              =   4.1056568494729E-05
(PID.TID 0000.0001) %MON dynstat_wvel_del2            =   1.5967596069114E-07
(PID.TID 0000.0001) %MON dynstat_theta_max            =   1.2000000000000E+00
(PID.TID 0000.0001) %MON dynstat_theta_min            =  -1.0000000000000E+00
(PID.TID 0000.0001) %MON dynstat_theta_mean           =   5.6805394448737E-01
(PID.TID 0000.0001) %MON dynstat_theta_sd             =   8.6802600013993E-01
(PID.TID 0000.0001) %MON dynstat_theta_del2           =   7.2066471800416E-06
(PID.TID 0000.0001) %MON dynstat_salt_max             =   3.4700000000000E+01
(PID.TID 0000.0001) %MON dynstat_salt_min             =   3.4000000000000E+01
(PID.TID 0000.0001) %MON dynstat_salt_mean            =   3.4498835560374E+01
(PID.TID 0000.0001) %MON dynstat_salt_sd              =   2.7615392848994E-01
(PID.TID 0000.0001) %MON dynstat_salt_del2            =   2.8577200098893E-06
(PID.TID 0000.0001) %MON advcfl_uvel_max              =   7.2060988803462E-03
(PID.TID 0000.0001) %MON advcfl_vvel_max              =   4.2774788018542E-03
(PID.TID 0000.0001) %MON advcfl_wvel_max              =   1.2075207050655E-02
(PID.TID 0000.0001) %MON advcfl_W_hf_max              =   1.2075207050655E-02
(PID.TID 0000.0001) %MON pe_b_mean                    =  -8.2961594900241E-01
(PID.TID 0000.0001) %MON ke_max                       =   2.3676980485834E-03
(PID.TID 0000.0001) %MON ke_mean                      =   2.8961200362806E-06
(PID.TID 0000.0001) %MON ke_vol                       =   4.2724647218064E+12
(PID.TID 0000.0001) // =======================================================
(PID.TID 0000.0001) // End MONITOR dynamic field statistics
(PID.TID 0000.0001) // =======================================================
(PID.TID 0000.0001) // =======================================================
(PID.TID 0000.0001) // Begin OBCS MONITOR field statistics
(PID.TID 0000.0001) // =======================================================
(PID.TID 0000.0001) %MON obc_N_vVel_max               =   1.4953173814649E-05
(PID.TID 0000.0001) %MON obc_N_vVel_min               =   1.4953173814648E-05
(PID.TID 0000.0001) %MON obc_N_vVel_mean              =   1.4953173814649E-05
(PID.TID 0000.0001) %MON obc_N_vVel_sd                =  -1.5690582244365E-23
(PID.TID 0000.0001) %MON obc_N_vVel_Int               =   9.8690947176680E+02
(PID.TID 0000.0001) // =======================================================
(PID.TID 0000.0001) // End OBCS MONITOR field statistics
(PID.TID 0000.0001) // =======================================================
 cg2d: Sum(rhs),rhsMax =   4.50806321765051E+00  2.99973078922447E+02
(PID.TID 0000.0001)      cg2d_init_res =   1.27598687326407E-05
(PID.TID 0000.0001)      cg2d_iters(min,last) =      -1      85
(PID.TID 0000.0001)      cg2d_last_res =   9.17881398553178E-12
(PID.TID 0000.0001) // =======================================================
(PID.TID 0000.0001) // Begin MONITOR dynamic field statistics
(PID.TID 0000.0001) // =======================================================
(PID.TID 0000.0001) %MON time_tsnumber                =                  1560
(PID.TID 0000.0001) %MON time_secondsf                =   1.5600000000000E+05
(PID.TID 0000.0001) %MON dynstat_eta_max              =   5.8056423101482E+00
(PID.TID 0000.0001) %MON dynstat_eta_min              =  -1.4196560342307E+01
(PID.TID 0000.0001) %MON dynstat_eta_mean             =  -2.5042548210660E+00
(PID.TID 0000.0001) %MON dynstat_eta_sd               =   4.9502365087084E+00
(PID.TID 0000.0001) %MON dynstat_eta_del2             =   2.0717470917868E-01
(PID.TID 0000.0001) %MON dynstat_uvel_max             =   1.6556538132036E-02
(PID.TID 0000.0001) %MON dynstat_uvel_min             =  -7.2180655800132E-02
(PID.TID 0000.0001) %MON dynstat_uvel_mean            =  -1.0346425405581E-07
(PID.TID 0000.0001) %MON dynstat_uvel_sd              =   2.1610818334687E-03
(PID.TID 0000.0001) %MON dynstat_uvel_del2            =   3.4116492892701E-06
(PID.TID 0000.0001) %MON dynstat_vvel_max             =   4.2818266512720E-02
(PID.TID 0000.0001) %MON dynstat_vvel_min             =  -2.6149308569980E-02
(PID.TID 0000.0001) %MON dynstat_vvel_mean            =   1.5283918805177E-05
(PID.TID 0000.0001) %MON dynstat_vvel_sd              =   1.1124870749355E-03
(PID.TID 0000.0001) %MON dynstat_vvel_del2            =   2.3101853368937E-06
(PID.TID 0000.0001) %MON dynstat_wvel_max             =   2.4178830357501E-03
(PID.TID 0000.0001) %MON dynstat_wvel_min             =  -2.3825287813208E-03
(PID.TID 0000.0001) %MON dynstat_wvel_mean            =   7.5546777807792E-09
(PID.TID 0000.0001) %MON dynstat_wvel_sd              =   4.1124792123873E-05
(PID.TID 0000.0001) %MON dynstat_wvel_del2            =   1.5992365351564E-07
(PID.TID 0000.0001) %MON dynstat_theta_max            =   1.2000000000000E+00
(PID.TID 0000.0001) %MON dynstat_theta_min            =  -1.0000000000000E+00
(PID.TID 0000.0001) %MON dynstat_theta_mean           =   5.6805191245780E-01
(PID.TID 0000.0001) %MON dynstat_theta_sd             =   8.6802497806130E-01
(PID.TID 0000.0001) %MON dynstat_theta_del2           =   7.2193669032436E-06
(PID.TID 0000.0001) %MON dynstat_salt_max             =   3.4700000000000E+01
(PID.TID 0000.0001) %MON dynstat_salt_min             =   3.4000000000000E+01
(PID.TID 0000.0001) %MON dynstat_salt_mean            =   3.4498834746929E+01
(PID.TID 0000.0001) %MON dynstat_salt_sd              =   2.7615354122907E-01
(PID.TID 0000.0001) %MON dynstat_salt_del2            =   2.8627753734480E-06
(PID.TID 0000.0001) %MON advcfl_uvel_max              =   7.2180655800132E-03
(PID.TID 0000.0001) %MON advcfl_vvel_max              =   4.2818266512720E-03
(PID.TID 0000.0001) %MON advcfl_wvel_max              =   1.2089415178751E-02
(PID.TID 0000.0001) %MON advcfl_W_hf_max              =   1.2089415178751E-02
(PID.TID 0000.0001) %MON pe_b_mean                    =  -8.2961492847063E-01
(PID.TID 0000.0001) %MON ke_max                       =   2.3774081404444E-03
(PID.TID 0000.0001) %MON ke_mean                      =   2.9077503673800E-06
(PID.TID 0000.0001) %MON ke_vol                       =   4.2724647240181E+12
(PID.TID 0000.0001) // =======================================================
(PID.TID 0000.0001) // End MONITOR dynamic field statistics
(PID.TID 0000.0001) // =======================================================
(PID.TID 0000.0001) // =======================================================
(PID.TID 0000.0001) // Begin OBCS MONITOR field statistics
(PID.TID 0000.0001) // =======================================================
(PID.TID 0000.0001) %MON obc_N_vVel_max               =   1.4958212183956E-05
(PID.TID 0000.0001) %MON obc_N_vVel_min               =   1.4958212183955E-05
(PID.TID 0000.0001) %MON obc_N_vVel_mean              =   1.4958212183956E-05
(PID.TID 0000.0001) %MON obc_N_vVel_sd                =  -5.6610173171598E-24
(PID.TID 0000.0001) %MON obc_N_vVel_Int               =   9.8724200414107E+02
(PID.TID 0000.0001) // =======================================================
(PID.TID 0000.0001) // End OBCS MONITOR field statistics
(PID.TID 0000.0001) // =======================================================
 cg2d: Sum(rhs),rhsMax =   4.50806124935701E+00  2.99973159982530E+02
(PID.TID 0000.0001)      cg2d_init_res =   1.27783895814602E-05
(PID.TID 0000.0001)      cg2d_iters(min,last) =      -1      85
(PID.TID 0000.0001)      cg2d_last_res =   9.18680026744634E-12
(PID.TID 0000.0001) // =======================================================
(PID.TID 0000.0001) // Begin MONITOR dynamic field statistics
(PID.TID 0000.0001) // =======================================================
(PID.TID 0000.0001) %MON time_tsnumber                =                  1561
(PID.TID 0000.0001) %MON time_secondsf                =   1.5610000000000E+05
(PID.TID 0000.0001) %MON dynstat_eta_max              =   5.8056860239004E+00
(PID.TID 0000.0001) %MON dynstat_eta_min              =  -1.4196590226752E+01
(PID.TID 0000.0001) %MON dynstat_eta_mean             =  -2.5042544043785E+00
(PID.TID 0000.0001) %MON dynstat_eta_sd               =   4.9502370891501E+00
(PID.TID 0000.0001) %MON dynstat_eta_del2             =   2.0717477415583E-01
(PID.TID 0000.0001) %MON dynstat_uvel_max             =   1.6590826942872E-02
(PID.TID 0000.0001) %MON dynstat_uvel_min             =  -7.2300291170017E-02
(PID.TID 0000.0001) %MON dynstat_uvel_mean            =  -1.0345449692230E-07
(PID.TID 0000.0001) %MON dynstat_uvel_sd              =   2.1654923366247E-03
(PID.TID 0000.0001) %MON dynstat_uvel_del2            =   3.4197856849222E-06
(PID.TID 0000.0001) %MON dynstat_vvel_max             =   4.2861689442066E-02
(PID.TID 0000.0001) %MON dynstat_vvel_min             =  -2.6206076902914E-02
(PID.TID 0000.0001) %MON dynstat_vvel_mean            =   1.5290608159154E-05
(PID.TID 0000.0001) %MON dynstat_vvel_sd              =   1.1145678079930E-03
(PID.TID 0000.0001) %MON dynstat_vvel_del2            =   2.3145515168976E-06
(PID.TID 0000.0001) %MON dynstat_wvel_max             =   2.4207209029003E-03
(PID.TID 0000.0001) %MON dynstat_wvel_min             =  -2.3855868628786E-03
(PID.TID 0000.0001) %MON dynstat_wvel_mean            =   7.5669844991838E-09
(PID.TID 0000.0001) %MON dynstat_wvel_sd              =   4.1189917957144E-05
(PID.TID 0000.0001) %MON dynstat_wvel_del2            =   1.6016260531677E-07
(PID.TID 0000.0001) %MON dynstat_theta_max            =   1.2000000000000E+00
(PID.TID 0000.0001) %MON dynstat_theta_min            =  -1.0000000000000E+00
(PID.TID 0000.0001) %MON dynstat_theta_mean           =   5.6804987708352E-01
(PID.TID 0000.0001) %MON dynstat_theta_sd             =   8.6802395461166E-01
(PID.TID 0000.0001) %MON dynstat_theta_del2           =   7.2321030981813E-06
(PID.TID 0000.0001) %MON dynstat_salt_max             =   3.4700000000000E+01
(PID.TID 0000.0001) %MON dynstat_salt_min             =   3.4000000000000E+01
(PID.TID 0000.0001) %MON dynstat_salt_mean            =   3.4498833932144E+01
(PID.TID 0000.0001) %MON dynstat_salt_sd              =   2.7615315348147E-01
(PID.TID 0000.0001) %MON dynstat_salt_del2            =   2.8678375049535E-06
(PID.TID 0000.0001) %MON advcfl_uvel_max              =   7.2300291170017E-03
(PID.TID 0000.0001) %MON advcfl_vvel_max              =   4.2861689442066E-03
(PID.TID 0000.0001) %MON advcfl_wvel_max              =   1.2103604514501E-02
(PID.TID 0000.0001) %MON advcfl_W_hf_max              =   1.2103604514501E-02
(PID.TID 0000.0001) %MON pe_b_mean                    =  -8.2961389988387E-01
(PID.TID 0000.0001) %MON ke_max                       =   2.3871447886521E-03
(PID.TID 0000.0001) %MON ke_mean                      =   2.9194193802137E-06
(PID.TID 0000.0001) %MON ke_vol                       =   4.2724647263629E+12
(PID.TID 0000.0001) // =======================================================
(PID.TID 0000.0001) // End MONITOR dynamic field statistics
(PID.TID 0000.0001) // =======================================================
(PID.TID 0000.0001) // =======================================================
(PID.TID 0000.0001) // Begin OBCS MONITOR field statistics
(PID.TID 0000.0001) // =======================================================
(PID.TID 0000.0001) %MON obc_N_vVel_max               =   1.4963673349758E-05
(PID.TID 0000.0001) %MON obc_N_vVel_min               =   1.4963673349757E-05
(PID.TID 0000.0001) %MON obc_N_vVel_mean              =   1.4963673349757E-05
(PID.TID 0000.0001) %MON obc_N_vVel_sd                =   3.4781484238871E-12
(PID.TID 0000.0001) %MON obc_N_vVel_Int               =   9.8760244108398E+02
(PID.TID 0000.0001) // =======================================================
(PID.TID 0000.0001) // End OBCS MONITOR field statistics
(PID.TID 0000.0001) // =======================================================
 cg2d: Sum(rhs),rhsMax =   4.50805924033636E+00  2.99973241161175E+02
(PID.TID 0000.0001)      cg2d_init_res =   1.27966629246603E-05
(PID.TID 0000.0001)      cg2d_iters(min,last) =      -1      85
(PID.TID 0000.0001)      cg2d_last_res =   9.19420932461210E-12
(PID.TID 0000.0001) // =======================================================
(PID.TID 0000.0001) // Begin MONITOR dynamic field statistics
(PID.TID 0000.0001) // =======================================================
(PID.TID 0000.0001) %MON time_tsnumber                =                  1562
(PID.TID 0000.0001) %MON time_secondsf                =   1.5620000000000E+05
(PID.TID 0000.0001) %MON dynstat_eta_max              =   5.8057298440398E+00
(PID.TID 0000.0001) %MON dynstat_eta_min              =  -1.4196620117210E+01
(PID.TID 0000.0001) %MON dynstat_eta_mean             =  -2.5042539660561E+00
(PID.TID 0000.0001) %MON dynstat_eta_sd               =   4.9502376635881E+00
(PID.TID 0000.0001) %MON dynstat_eta_del2             =   2.0717483921863E-01
(PID.TID 0000.0001) %MON dynstat_uvel_max             =   1.6625164418455E-02
(PID.TID 0000.0001) %MON dynstat_uvel_min             =  -7.2419894225953E-02
(PID.TID 0000.0001) %MON dynstat_uvel_mean            =  -1.0343769777488E-07
(PID.TID 0000.0001) %MON dynstat_uvel_sd              =   2.1699088848336E-03
(PID.TID 0000.0001) %MON dynstat_uvel_del2            =   3.4279393823664E-06
(PID.TID 0000.0001) %MON dynstat_vvel_max             =   4.2905056585592E-02
(PID.TID 0000.0001) %MON dynstat_vvel_min             =  -2.6262905823916E-02
(PID.TID 0000.0001) %MON dynstat_vvel_mean            =   1.5297561790068E-05
(PID.TID 0000.0001) %MON dynstat_vvel_sd              =   1.1166508513540E-03
(PID.TID 0000.0001) %MON dynstat_vvel_del2            =   2.3189222296227E-06
(PID.TID 0000.0001) %MON dynstat_wvel_max             =   2.4235550100207E-03
(PID.TID 0000.0001) %MON dynstat_wvel_min             =  -2.3886381487219E-03
(PID.TID 0000.0001) %MON dynstat_wvel_mean            =   7.5786018002939E-09
(PID.TID 0000.0001) %MON dynstat_wvel_sd              =   4.1252219476561E-05
(PID.TID 0000.0001) %MON dynstat_wvel_del2            =   1.6039295637810E-07
(PID.TID 0000.0001) %MON dynstat_theta_max            =   1.2000000000000E+00
(PID.TID 0000.0001) %MON dynstat_theta_min            =  -1.0000000000000E+00
(PID.TID 0000.0001) %MON dynstat_theta_mean           =   5.6804783836191E-01
(PID.TID 0000.0001) %MON dynstat_theta_sd             =   8.6802292979526E-01
(PID.TID 0000.0001) %MON dynstat_theta_del2           =   7.2448573917014E-06
(PID.TID 0000.0001) %MON dynstat_salt_max             =   3.4700000000000E+01
(PID.TID 0000.0001) %MON dynstat_salt_min             =   3.4000000000000E+01
(PID.TID 0000.0001) %MON dynstat_salt_mean            =   3.4498833116018E+01
(PID.TID 0000.0001) %MON dynstat_salt_sd              =   2.7615276524629E-01
(PID.TID 0000.0001) %MON dynstat_salt_del2            =   2.8729057526425E-06
(PID.TID 0000.0001) %MON advcfl_uvel_max              =   7.2419894225953E-03
(PID.TID 0000.0001) %MON advcfl_vvel_max              =   4.2905056585592E-03
(PID.TID 0000.0001) %MON advcfl_wvel_max              =   1.2117775050103E-02
(PID.TID 0000.0001) %MON advcfl_W_hf_max              =   1.2117775050103E-02
(PID.TID 0000.0001) %MON pe_b_mean                    =  -8.2961286328960E-01
(PID.TID 0000.0001) %MON ke_max                       =   2.3969079834792E-03
(PID.TID 0000.0001) %MON ke_mean                      =   2.9311272302284E-06
(PID.TID 0000.0001) %MON ke_vol                       =   4.2724647288380E+12
(PID.TID 0000.0001) // =======================================================
(PID.TID 0000.0001) // End MONITOR dynamic field statistics
(PID.TID 0000.0001) // =======================================================
(PID.TID 0000.0001) // =======================================================
(PID.TID 0000.0001) // Begin OBCS MONITOR field statistics
(PID.TID 0000.0001) // =======================================================
(PID.TID 0000.0001) %MON obc_N_vVel_max               =   1.4969442856088E-05
(PID.TID 0000.0001) %MON obc_N_vVel_min               =   1.4969442856088E-05
(PID.TID 0000.0001) %MON obc_N_vVel_mean              =   1.4969442856088E-05
(PID.TID 0000.0001) %MON obc_N_vVel_sd                =   2.0962817091670E-12
(PID.TID 0000.0001) %MON obc_N_vVel_Int               =   9.8798322850180E+02
(PID.TID 0000.0001) // =======================================================
(PID.TID 0000.0001) // End OBCS MONITOR field statistics
(PID.TID 0000.0001) // =======================================================
 cg2d: Sum(rhs),rhsMax =   4.50805719105960E+00  2.99973322448838E+02
(PID.TID 0000.0001)      cg2d_init_res =   1.28146692713853E-05
(PID.TID 0000.0001)      cg2d_iters(min,last) =      -1      85
(PID.TID 0000.0001)      cg2d_last_res =   9.20100219395018E-12
(PID.TID 0000.0001) // =======================================================
(PID.TID 0000.0001) // Begin MONITOR dynamic field statistics
(PID.TID 0000.0001) // =======================================================
(PID.TID 0000.0001) %MON time_tsnumber                =                  1563
(PID.TID 0000.0001) %MON time_secondsf                =   1.5630000000000E+05
(PID.TID 0000.0001) %MON dynstat_eta_max              =   5.8057737705509E+00
(PID.TID 0000.0001) %MON dynstat_eta_min              =  -1.4196650013607E+01
(PID.TID 0000.0001) %MON dynstat_eta_mean             =  -2.5042535062806E+00
(PID.TID 0000.0001) %MON dynstat_eta_sd               =   4.9502382319647E+00
(PID.TID 0000.0001) %MON dynstat_eta_del2             =   2.0717490436672E-01
(PID.TID 0000.0001) %MON dynstat_uvel_max             =   1.6659550598970E-02
(PID.TID 0000.0001) %MON dynstat_uvel_min             =  -7.2539464289805E-02
(PID.TID 0000.0001) %MON dynstat_uvel_mean            =  -1.0341360770585E-07
(PID.TID 0000.0001) %MON dynstat_uvel_sd              =   2.1743314731904E-03
(PID.TID 0000.0001) %MON dynstat_uvel_del2            =   3.4361103873698E-06
(PID.TID 0000.0001) %MON dynstat_vvel_max             =   4.2948367721673E-02
(PID.TID 0000.0001) %MON dynstat_vvel_min             =  -2.6319794884357E-02
(PID.TID 0000.0001) %MON dynstat_vvel_mean            =   1.5304637324694E-05
(PID.TID 0000.0001) %MON dynstat_vvel_sd              =   1.1187363030842E-03
(PID.TID 0000.0001) %MON dynstat_vvel_del2            =   2.3232977886135E-06
(PID.TID 0000.0001) %MON dynstat_wvel_max             =   2.4263853546703E-03
(PID.TID 0000.0001) %MON dynstat_wvel_min             =  -2.3916824767804E-03
(PID.TID 0000.0001) %MON dynstat_wvel_mean            =   7.5893181820001E-09
(PID.TID 0000.0001) %MON dynstat_wvel_sd              =   4.1312083555980E-05
(PID.TID 0000.0001) %MON dynstat_wvel_del2            =   1.6061527219854E-07
(PID.TID 0000.0001) %MON dynstat_theta_max            =   1.2000000000000E+00
(PID.TID 0000.0001) %MON dynstat_theta_min            =  -1.0000000000000E+00
(PID.TID 0000.0001) %MON dynstat_theta_mean           =   5.6804579629006E-01
(PID.TID 0000.0001) %MON dynstat_theta_sd             =   8.6802190361518E-01
(PID.TID 0000.0001) %MON dynstat_theta_del2           =   7.2576296138115E-06
(PID.TID 0000.0001) %MON dynstat_salt_max             =   3.4700000000000E+01
(PID.TID 0000.0001) %MON dynstat_salt_min             =   3.4000000000000E+01
(PID.TID 0000.0001) %MON dynstat_salt_mean            =   3.4498832298551E+01
(PID.TID 0000.0001) %MON dynstat_salt_sd              =   2.7615237652604E-01
(PID.TID 0000.0001) %MON dynstat_salt_del2            =   2.8779806454049E-06
(PID.TID 0000.0001) %MON advcfl_uvel_max              =   7.2539464289805E-03
(PID.TID 0000.0001) %MON advcfl_vvel_max              =   4.2948367721673E-03
(PID.TID 0000.0001) %MON advcfl_wvel_max              =   1.2131926773351E-02
(PID.TID 0000.0001) %MON advcfl_W_hf_max              =   1.2131926773351E-02
(PID.TID 0000.0001) %MON pe_b_mean                    =  -8.2961181869922E-01
(PID.TID 0000.0001) %MON ke_max                       =   2.4066977150686E-03
(PID.TID 0000.0001) %MON ke_mean                      =   2.9428741074537E-06
(PID.TID 0000.0001) %MON ke_vol                       =   4.2724647314416E+12
(PID.TID 0000.0001) // =======================================================
(PID.TID 0000.0001) // End MONITOR dynamic field statistics
(PID.TID 0000.0001) // =======================================================
(PID.TID 0000.0001) // =======================================================
(PID.TID 0000.0001) // Begin OBCS MONITOR field statistics
(PID.TID 0000.0001) // =======================================================
(PID.TID 0000.0001) %MON obc_N_vVel_max               =   1.4975400359009E-05
(PID.TID 0000.0001) %MON obc_N_vVel_min               =   1.4975400359009E-05
(PID.TID 0000.0001) %MON obc_N_vVel_mean              =   1.4975400359009E-05
(PID.TID 0000.0001) %MON obc_N_vVel_sd                =   2.9295048822690E-12
(PID.TID 0000.0001) %MON obc_N_vVel_Int               =   9.8837642369459E+02
(PID.TID 0000.0001) // =======================================================
(PID.TID 0000.0001) // End OBCS MONITOR field statistics
(PID.TID 0000.0001) // =======================================================
 cg2d: Sum(rhs),rhsMax =   4.50805510176663E+00  2.99973403834938E+02
(PID.TID 0000.0001)      cg2d_init_res =   1.28324166430581E-05
(PID.TID 0000.0001)      cg2d_iters(min,last) =      -1      85
(PID.TID 0000.0001)      cg2d_last_res =   9.20718680112452E-12
(PID.TID 0000.0001) // =======================================================
(PID.TID 0000.0001) // Begin MONITOR dynamic field statistics
(PID.TID 0000.0001) // =======================================================
(PID.TID 0000.0001) %MON time_tsnumber                =                  1564
(PID.TID 0000.0001) %MON time_secondsf                =   1.5640000000000E+05
(PID.TID 0000.0001) %MON dynstat_eta_max              =   5.8058178036974E+00
(PID.TID 0000.0001) %MON dynstat_eta_min              =  -1.4196679915734E+01
(PID.TID 0000.0001) %MON dynstat_eta_mean             =  -2.5042530250970E+00
(PID.TID 0000.0001) %MON dynstat_eta_sd               =   4.9502387941834E+00
(PID.TID 0000.0001) %MON dynstat_eta_del2             =   2.0717496960024E-01
(PID.TID 0000.0001) %MON dynstat_uvel_max             =   1.6693985524556E-02
(PID.TID 0000.0001) %MON dynstat_uvel_min             =  -7.2659000692619E-02
(PID.TID 0000.0001) %MON dynstat_uvel_mean            =  -1.0338212333835E-07
(PID.TID 0000.0001) %MON dynstat_uvel_sd              =   2.1787600969260E-03
(PID.TID 0000.0001) %MON dynstat_uvel_del2            =   3.4442987133610E-06
(PID.TID 0000.0001) %MON dynstat_vvel_max             =   4.2991622628832E-02
(PID.TID 0000.0001) %MON dynstat_vvel_min             =  -2.6376743629646E-02
(PID.TID 0000.0001) %MON dynstat_vvel_mean            =   1.5311690812908E-05
(PID.TID 0000.0001) %MON dynstat_vvel_sd              =   1.1208242867908E-03
(PID.TID 0000.0001) %MON dynstat_vvel_del2            =   2.3276786029642E-06
(PID.TID 0000.0001) %MON dynstat_wvel_max             =   2.4292119337105E-03
(PID.TID 0000.0001) %MON dynstat_wvel_min             =  -2.3947196837790E-03
(PID.TID 0000.0001) %MON dynstat_wvel_mean            =   7.5989397493175E-09
(PID.TID 0000.0001) %MON dynstat_wvel_sd              =   4.1369994756258E-05
(PID.TID 0000.0001) %MON dynstat_wvel_del2            =   1.6083052800191E-07
(PID.TID 0000.0001) %MON dynstat_theta_max            =   1.2000000000000E+00
(PID.TID 0000.0001) %MON dynstat_theta_min            =  -1.0000000000000E+00
(PID.TID 0000.0001) %MON dynstat_theta_mean           =   5.6804375086479E-01
(PID.TID 0000.0001) %MON dynstat_theta_sd             =   8.6802087607330E-01
(PID.TID 0000.0001) %MON dynstat_theta_del2           =   7.2704189756740E-06
(PID.TID 0000.0001) %MON dynstat_salt_max             =   3.4700000000000E+01
(PID.TID 0000.0001) %MON dynstat_salt_min             =   3.4000000000000E+01
(PID.TID 0000.0001) %MON dynstat_salt_mean            =   3.4498831479741E+01
(PID.TID 0000.0001) %MON dynstat_salt_sd              =   2.7615198732151E-01
(PID.TID 0000.0001) %MON dynstat_salt_del2            =   2.8830621304412E-06
(PID.TID 0000.0001) %MON advcfl_uvel_max              =   7.2659000692619E-03
(PID.TID 0000.0001) %MON advcfl_vvel_max              =   4.2991622628832E-03
(PID.TID 0000.0001) %MON advcfl_wvel_max              =   1.2146059668552E-02
(PID.TID 0000.0001) %MON advcfl_W_hf_max              =   1.2146059668552E-02
(PID.TID 0000.0001) %MON pe_b_mean                    =  -8.2961076608786E-01
(PID.TID 0000.0001) %MON ke_max                       =   2.4165139734617E-03
(PID.TID 0000.0001) %MON ke_mean                      =   2.9546602316676E-06
(PID.TID 0000.0001) %MON ke_vol                       =   4.2724647341727E+12
(PID.TID 0000.0001) // =======================================================
(PID.TID 0000.0001) // End MONITOR dynamic field statistics
(PID.TID 0000.0001) // =======================================================
(PID.TID 0000.0001) // =======================================================
(PID.TID 0000.0001) // Begin OBCS MONITOR field statistics
(PID.TID 0000.0001) // =======================================================
(PID.TID 0000.0001) %MON obc_N_vVel_max               =   1.4981422377483E-05
(PID.TID 0000.0001) %MON obc_N_vVel_min               =   1.4981422377483E-05
(PID.TID 0000.0001) %MON obc_N_vVel_mean              =   1.4981422377483E-05
(PID.TID 0000.0001) %MON obc_N_vVel_sd                =  -2.7658851732242E-24
(PID.TID 0000.0001) %MON obc_N_vVel_Int               =   9.8877387691385E+02
(PID.TID 0000.0001) // =======================================================
(PID.TID 0000.0001) // End OBCS MONITOR field statistics
(PID.TID 0000.0001) // =======================================================
 cg2d: Sum(rhs),rhsMax =   4.50805297246250E+00  2.99973485308070E+02
(PID.TID 0000.0001)      cg2d_init_res =   1.28498875841029E-05
(PID.TID 0000.0001)      cg2d_iters(min,last) =      -1      85
(PID.TID 0000.0001)      cg2d_last_res =   9.21275381072797E-12
(PID.TID 0000.0001) // =======================================================
(PID.TID 0000.0001) // Begin MONITOR dynamic field statistics
(PID.TID 0000.0001) // =======================================================
(PID.TID 0000.0001) %MON time_tsnumber                =                  1565
(PID.TID 0000.0001) %MON time_secondsf                =   1.5650000000000E+05
(PID.TID 0000.0001) %MON dynstat_eta_max              =   5.8058619440244E+00
(PID.TID 0000.0001) %MON dynstat_eta_min              =  -1.4196709823238E+01
(PID.TID 0000.0001) %MON dynstat_eta_mean             =  -2.5042525224129E+00
(PID.TID 0000.0001) %MON dynstat_eta_sd               =   4.9502393501017E+00
(PID.TID 0000.0001) %MON dynstat_eta_del2             =   2.0717503491903E-01
(PID.TID 0000.0001) %MON dynstat_uvel_max             =   1.6728469235421E-02
(PID.TID 0000.0001) %MON dynstat_uvel_min             =  -7.2778502773420E-02
(PID.TID 0000.0001) %MON dynstat_uvel_mean            =  -1.0334329017218E-07
(PID.TID 0000.0001) %MON dynstat_uvel_sd              =   2.1831947512882E-03
(PID.TID 0000.0001) %MON dynstat_uvel_del2            =   3.4525043758286E-06
(PID.TID 0000.0001) %MON dynstat_vvel_max             =   4.3034821086510E-02
(PID.TID 0000.0001) %MON dynstat_vvel_min             =  -2.6433751598315E-02
(PID.TID 0000.0001) %MON dynstat_vvel_mean            =   1.5318580111483E-05
(PID.TID 0000.0001) %MON dynstat_vvel_sd              =   1.1229149465555E-03
(PID.TID 0000.0001) %MON dynstat_vvel_del2            =   2.3320651621556E-06
(PID.TID 0000.0001) %MON dynstat_wvel_max             =   2.4320347434316E-03
(PID.TID 0000.0001) %MON dynstat_wvel_min             =  -2.3977496063013E-03
(PID.TID 0000.0001) %MON dynstat_wvel_mean            =   7.6073001161616E-09
(PID.TID 0000.0001) %MON dynstat_wvel_sd              =   4.1426515214547E-05
(PID.TID 0000.0001) %MON dynstat_wvel_del2            =   1.6104006864042E-07
(PID.TID 0000.0001) %MON dynstat_theta_max            =   1.2000000000000E+00
(PID.TID 0000.0001) %MON dynstat_theta_min            =  -1.0000000000000E+00
(PID.TID 0000.0001) %MON dynstat_theta_mean           =   5.6804170208264E-01
(PID.TID 0000.0001) %MON dynstat_theta_sd             =   8.6801984717179E-01
(PID.TID 0000.0001) %MON dynstat_theta_del2           =   7.2832252310983E-06
(PID.TID 0000.0001) %MON dynstat_salt_max             =   3.4700000000000E+01
(PID.TID 0000.0001) %MON dynstat_salt_min             =   3.4000000000000E+01
(PID.TID 0000.0001) %MON dynstat_salt_mean            =   3.4498830659586E+01
(PID.TID 0000.0001) %MON dynstat_salt_sd              =   2.7615159763373E-01
(PID.TID 0000.0001) %MON dynstat_salt_del2            =   2.8881500545522E-06
(PID.TID 0000.0001) %MON advcfl_uvel_max              =   7.2778502773420E-03
(PID.TID 0000.0001) %MON advcfl_vvel_max              =   4.3034821086510E-03
(PID.TID 0000.0001) %MON advcfl_wvel_max              =   1.2160173717158E-02
(PID.TID 0000.0001) %MON advcfl_W_hf_max              =   1.2160173717158E-02
(PID.TID 0000.0001) %MON pe_b_mean                    =  -8.2960970539498E-01
(PID.TID 0000.0001) %MON ke_max                       =   2.4263567485061E-03
(PID.TID 0000.0001) %MON ke_mean                      =   2.9664858467710E-06
(PID.TID 0000.0001) %MON ke_vol                       =   4.2724647370309E+12
(PID.TID 0000.0001) // =======================================================
(PID.TID 0000.0001) // End MONITOR dynamic field statistics
(PID.TID 0000.0001) // =======================================================
(PID.TID 0000.0001) // =======================================================
(PID.TID 0000.0001) // Begin OBCS MONITOR field statistics
(PID.TID 0000.0001) // =======================================================
(PID.TID 0000.0001) %MON obc_N_vVel_max               =   1.4987385116714E-05
(PID.TID 0000.0001) %MON obc_N_vVel_min               =   1.4987385116714E-05
(PID.TID 0000.0001) %MON obc_N_vVel_mean              =   1.4987385116714E-05
(PID.TID 0000.0001) %MON obc_N_vVel_sd                =  -9.8227697740672E-24
(PID.TID 0000.0001) %MON obc_N_vVel_Int               =   9.8916741770311E+02
(PID.TID 0000.0001) // =======================================================
(PID.TID 0000.0001) // End OBCS MONITOR field statistics
(PID.TID 0000.0001) // =======================================================
 cg2d: Sum(rhs),rhsMax =   4.50805080291857E+00  2.99973566856263E+02
(PID.TID 0000.0001)      cg2d_init_res =   1.28670739572279E-05
(PID.TID 0000.0001)      cg2d_iters(min,last) =      -1      85
(PID.TID 0000.0001)      cg2d_last_res =   9.21774116774191E-12
(PID.TID 0000.0001) // =======================================================
(PID.TID 0000.0001) // Begin MONITOR dynamic field statistics
(PID.TID 0000.0001) // =======================================================
(PID.TID 0000.0001) %MON time_tsnumber                =                  1566
(PID.TID 0000.0001) %MON time_secondsf                =   1.5660000000000E+05
(PID.TID 0000.0001) %MON dynstat_eta_max              =   5.8059061923373E+00
(PID.TID 0000.0001) %MON dynstat_eta_min              =  -1.4196739735640E+01
(PID.TID 0000.0001) %MON dynstat_eta_mean             =  -2.5042519980014E+00
(PID.TID 0000.0001) %MON dynstat_eta_sd               =   4.9502398995372E+00
(PID.TID 0000.0001) %MON dynstat_eta_del2             =   2.0717510032287E-01
(PID.TID 0000.0001) %MON dynstat_uvel_max             =   1.6763001771679E-02
(PID.TID 0000.0001) %MON dynstat_uvel_min             =  -7.2897969879562E-02
(PID.TID 0000.0001) %MON dynstat_uvel_mean            =  -1.0329731662984E-07
(PID.TID 0000.0001) %MON dynstat_uvel_sd              =   2.1876354315278E-03
(PID.TID 0000.0001) %MON dynstat_uvel_del2            =   3.4607273883825E-06
(PID.TID 0000.0001) %MON dynstat_vvel_max             =   4.3077962875663E-02
(PID.TID 0000.0001) %MON dynstat_vvel_min             =  -2.6490818321204E-02
(PID.TID 0000.0001) %MON dynstat_vvel_mean            =   1.5325168078814E-05
(PID.TID 0000.0001) %MON dynstat_vvel_sd              =   1.1250084408931E-03
(PID.TID 0000.0001) %MON dynstat_vvel_del2            =   2.3364580162091E-06
(PID.TID 0000.0001) %MON dynstat_wvel_max             =   2.4348537796718E-03
(PID.TID 0000.0001) %MON dynstat_wvel_min             =  -2.4007720798647E-03
(PID.TID 0000.0001) %MON dynstat_wvel_mean            =   7.6142632769311E-09
(PID.TID 0000.0001) %MON dynstat_wvel_sd              =   4.1482260900808E-05
(PID.TID 0000.0001) %MON dynstat_wvel_del2            =   1.6124554651082E-07
(PID.TID 0000.0001) %MON dynstat_theta_max            =   1.2000000000000E+00
(PID.TID 0000.0001) %MON dynstat_theta_min            =  -1.0000000000000E+00
(PID.TID 0000.0001) %MON dynstat_theta_mean           =   5.6803964993989E-01
(PID.TID 0000.0001) %MON dynstat_theta_sd             =   8.6801881691325E-01
(PID.TID 0000.0001) %MON dynstat_theta_del2           =   7.2960420455455E-06
(PID.TID 0000.0001) %MON dynstat_salt_max             =   3.4700000000000E+01
(PID.TID 0000.0001) %MON dynstat_salt_min             =   3.4000000000000E+01
(PID.TID 0000.0001) %MON dynstat_salt_mean            =   3.4498829838085E+01
(PID.TID 0000.0001) %MON dynstat_salt_sd              =   2.7615120746350E-01
(PID.TID 0000.0001) %MON dynstat_salt_del2            =   2.8932427189865E-06
(PID.TID 0000.0001) %MON advcfl_uvel_max              =   7.2897969879562E-03
(PID.TID 0000.0001) %MON advcfl_vvel_max              =   4.3077962875663E-03
(PID.TID 0000.0001) %MON advcfl_wvel_max              =   1.2174268898359E-02
(PID.TID 0000.0001) %MON advcfl_W_hf_max              =   1.2174268898359E-02
(PID.TID 0000.0001) %MON pe_b_mean                    =  -8.2960863652599E-01
(PID.TID 0000.0001) %MON ke_max                       =   2.4362260298766E-03
(PID.TID 0000.0001) %MON ke_mean                      =   2.9783512142292E-06
(PID.TID 0000.0001) %MON ke_vol                       =   4.2724647400169E+12
(PID.TID 0000.0001) // =======================================================
(PID.TID 0000.0001) // End MONITOR dynamic field statistics
(PID.TID 0000.0001) // =======================================================
(PID.TID 0000.0001) // =======================================================
(PID.TID 0000.0001) // Begin OBCS MONITOR field statistics
(PID.TID 0000.0001) // =======================================================
(PID.TID 0000.0001) %MON obc_N_vVel_max               =   1.4993167244524E-05
(PID.TID 0000.0001) %MON obc_N_vVel_min               =   1.4993167244524E-05
(PID.TID 0000.0001) %MON obc_N_vVel_mean              =   1.4993167244524E-05
(PID.TID 0000.0001) %MON obc_N_vVel_sd                =   2.5623711893751E-12
(PID.TID 0000.0001) %MON obc_N_vVel_Int               =   9.8954903813859E+02
(PID.TID 0000.0001) // =======================================================
(PID.TID 0000.0001) // End OBCS MONITOR field statistics
(PID.TID 0000.0001) // =======================================================
 cg2d: Sum(rhs),rhsMax =   4.50804859267872E+00  2.99973648467243E+02
(PID.TID 0000.0001)      cg2d_init_res =   1.28839586736368E-05
(PID.TID 0000.0001)      cg2d_iters(min,last) =      -1      85
(PID.TID 0000.0001)      cg2d_last_res =   9.22218256141070E-12
(PID.TID 0000.0001) // =======================================================
(PID.TID 0000.0001) // Begin MONITOR dynamic field statistics
(PID.TID 0000.0001) // =======================================================
(PID.TID 0000.0001) %MON time_tsnumber                =                  1567
(PID.TID 0000.0001) %MON time_secondsf                =   1.5670000000000E+05
(PID.TID 0000.0001) %MON dynstat_eta_max              =   5.8059505496985E+00
(PID.TID 0000.0001) %MON dynstat_eta_min              =  -1.4196769652346E+01
(PID.TID 0000.0001) %MON dynstat_eta_mean             =  -2.5042514515064E+00
(PID.TID 0000.0001) %MON dynstat_eta_sd               =   4.9502404422828E+00
(PID.TID 0000.0001) %MON dynstat_eta_del2             =   2.0717516581228E-01
(PID.TID 0000.0001) %MON dynstat_uvel_max             =   1.6797583173069E-02
(PID.TID 0000.0001) %MON dynstat_uvel_min             =  -7.3017401368933E-02
(PID.TID 0000.0001) %MON dynstat_uvel_mean            =  -1.0324455069571E-07
(PID.TID 0000.0001) %MON dynstat_uvel_sd              =   2.1920821326393E-03
(PID.TID 0000.0001) %MON dynstat_uvel_del2            =   3.4689677605667E-06
(PID.TID 0000.0001) %MON dynstat_vvel_max             =   4.3121047779542E-02
(PID.TID 0000.0001) %MON dynstat_vvel_min             =  -2.6547943321075E-02
(PID.TID 0000.0001) %MON dynstat_vvel_mean            =   1.5331325604902E-05
(PID.TID 0000.0001) %MON dynstat_vvel_sd              =   1.1271049362230E-03
(PID.TID 0000.0001) %MON dynstat_vvel_del2            =   2.3408577487924E-06
(PID.TID 0000.0001) %MON dynstat_wvel_max             =   2.4376690378764E-03
(PID.TID 0000.0001) %MON dynstat_wvel_min             =  -2.4037869393450E-03
(PID.TID 0000.0001) %MON dynstat_wvel_mean            =   7.6197253314675E-09
(PID.TID 0000.0001) %MON dynstat_wvel_sd              =   4.1537875293616E-05
(PID.TID 0000.0001) %MON dynstat_wvel_del2            =   1.6144884143192E-07
(PID.TID 0000.0001) %MON dynstat_theta_max            =   1.2000000000000E+00
(PID.TID 0000.0001) %MON dynstat_theta_min            =  -1.0000000000000E+00
(PID.TID 0000.0001) %MON dynstat_theta_mean           =   5.6803759443254E-01
(PID.TID 0000.0001) %MON dynstat_theta_sd             =   8.6801778529868E-01
(PID.TID 0000.0001) %MON dynstat_theta_del2           =   7.3088701474031E-06
(PID.TID 0000.0001) %MON dynstat_salt_max             =   3.4700000000000E+01
(PID.TID 0000.0001) %MON dynstat_salt_min             =   3.4000000000000E+01
(PID.TID 0000.0001) %MON dynstat_salt_mean            =   3.4498829015237E+01
(PID.TID 0000.0001) %MON dynstat_salt_sd              =   2.7615081681165E-01
(PID.TID 0000.0001) %MON dynstat_salt_del2            =   2.8983390371454E-06
(PID.TID 0000.0001) %MON advcfl_uvel_max              =   7.3017401368933E-03
(PID.TID 0000.0001) %MON advcfl_vvel_max              =   4.3121047779542E-03
(PID.TID 0000.0001) %MON advcfl_wvel_max              =   1.2188345189382E-02
(PID.TID 0000.0001) %MON advcfl_W_hf_max              =   1.2188345189382E-02
(PID.TID 0000.0001) %MON pe_b_mean                    =  -8.2960755935438E-01
(PID.TID 0000.0001) %MON ke_max                       =   2.4461218072179E-03
(PID.TID 0000.0001) %MON ke_mean                      =   2.9902566053588E-06
(PID.TID 0000.0001) %MON ke_vol                       =   4.2724647431319E+12
(PID.TID 0000.0001) // =======================================================
(PID.TID 0000.0001) // End MONITOR dynamic field statistics
(PID.TID 0000.0001) // =======================================================
(PID.TID 0000.0001) // =======================================================
(PID.TID 0000.0001) // Begin OBCS MONITOR field statistics
(PID.TID 0000.0001) // =======================================================
(PID.TID 0000.0001) %MON obc_N_vVel_max               =   1.4998652584807E-05
(PID.TID 0000.0001) %MON obc_N_vVel_min               =   1.4998652584807E-05
(PID.TID 0000.0001) %MON obc_N_vVel_mean              =   1.4998652584807E-05
(PID.TID 0000.0001) %MON obc_N_vVel_sd                =  -1.3338287377418E-23
(PID.TID 0000.0001) %MON obc_N_vVel_Int               =   9.8991107059727E+02
(PID.TID 0000.0001) // =======================================================
(PID.TID 0000.0001) // End OBCS MONITOR field statistics
(PID.TID 0000.0001) // =======================================================
 cg2d: Sum(rhs),rhsMax =   4.50804634107144E+00  2.99973730128650E+02
(PID.TID 0000.0001)      cg2d_init_res =   1.29005531474786E-05
(PID.TID 0000.0001)      cg2d_iters(min,last) =      -1      85
(PID.TID 0000.0001)      cg2d_last_res =   9.22613413548652E-12
(PID.TID 0000.0001) // =======================================================
(PID.TID 0000.0001) // Begin MONITOR dynamic field statistics
(PID.TID 0000.0001) // =======================================================
(PID.TID 0000.0001) %MON time_tsnumber                =                  1568
(PID.TID 0000.0001) %MON time_secondsf                =   1.5680000000000E+05
(PID.TID 0000.0001) %MON dynstat_eta_max              =   5.8059950173850E+00
(PID.TID 0000.0001) %MON dynstat_eta_min              =  -1.4196799572646E+01
(PID.TID 0000.0001) %MON dynstat_eta_mean             =  -2.5042508824519E+00
(PID.TID 0000.0001) %MON dynstat_eta_sd               =   4.9502409781042E+00
(PID.TID 0000.0001) %MON dynstat_eta_del2             =   2.0717523138793E-01
(PID.TID 0000.0001) %MON dynstat_uvel_max             =   1.6832213478375E-02
(PID.TID 0000.0001) %MON dynstat_uvel_min             =  -7.3136796609206E-02
(PID.TID 0000.0001) %MON dynstat_uvel_mean            =  -1.0318546894279E-07
(PID.TID 0000.0001) %MON dynstat_uvel_sd              =   2.1965348492808E-03
(PID.TID 0000.0001) %MON dynstat_uvel_del2            =   3.4772254967686E-06
(PID.TID 0000.0001) %MON dynstat_vvel_max             =   4.3164075584289E-02
(PID.TID 0000.0001) %MON dynstat_vvel_min             =  -2.6605126112003E-02
(PID.TID 0000.0001) %MON dynstat_vvel_mean            =   1.5336934444986E-05
(PID.TID 0000.0001) %MON dynstat_vvel_sd              =   1.1292046000393E-03
(PID.TID 0000.0001) %MON dynstat_vvel_del2            =   2.3452649498977E-06
(PID.TID 0000.0001) %MON dynstat_wvel_max             =   2.4404805131808E-03
(PID.TID 0000.0001) %MON dynstat_wvel_min             =  -2.4067940188484E-03
(PID.TID 0000.0001) %MON dynstat_wvel_mean            =   7.6236173667778E-09
(PID.TID 0000.0001) %MON dynstat_wvel_sd              =   4.1594001613490E-05
(PID.TID 0000.0001) %MON dynstat_wvel_del2            =   1.6165196589334E-07
(PID.TID 0000.0001) %MON dynstat_theta_max            =   1.2000000000000E+00
(PID.TID 0000.0001) %MON dynstat_theta_min            =  -1.0000000000000E+00
(PID.TID 0000.0001) %MON dynstat_theta_mean           =   5.6803553555633E-01
(PID.TID 0000.0001) %MON dynstat_theta_sd             =   8.6801675232748E-01
(PID.TID 0000.0001) %MON dynstat_theta_del2           =   7.3217130038837E-06
(PID.TID 0000.0001) %MON dynstat_salt_max             =   3.4700000000000E+01
(PID.TID 0000.0001) %MON dynstat_salt_min             =   3.4000000000000E+01
(PID.TID 0000.0001) %MON dynstat_salt_mean            =   3.4498828191040E+01
(PID.TID 0000.0001) %MON dynstat_salt_sd              =   2.7615042567782E-01
(PID.TID 0000.0001) %MON dynstat_salt_del2            =   2.9034412138087E-06
(PID.TID 0000.0001) %MON advcfl_uvel_max              =   7.3136796609206E-03
(PID.TID 0000.0001) %MON advcfl_vvel_max              =   4.3164075584289E-03
(PID.TID 0000.0001) %MON advcfl_wvel_max              =   1.2202402565904E-02
(PID.TID 0000.0001) %MON advcfl_W_hf_max              =   1.2202402565904E-02
(PID.TID 0000.0001) %MON pe_b_mean                    =  -8.2960647372470E-01
(PID.TID 0000.0001) %MON ke_max                       =   2.4560440700948E-03
(PID.TID 0000.0001) %MON ke_mean                      =   3.0022022935701E-06
(PID.TID 0000.0001) %MON ke_vol                       =   4.2724647463781E+12
(PID.TID 0000.0001) // =======================================================
(PID.TID 0000.0001) // End MONITOR dynamic field statistics
(PID.TID 0000.0001) // =======================================================
(PID.TID 0000.0001) // =======================================================
(PID.TID 0000.0001) // Begin OBCS MONITOR field statistics
(PID.TID 0000.0001) // =======================================================
(PID.TID 0000.0001) %MON obc_N_vVel_max               =   1.5003732720106E-05
(PID.TID 0000.0001) %MON obc_N_vVel_min               =   1.5003732720106E-05
(PID.TID 0000.0001) %MON obc_N_vVel_mean              =   1.5003732720106E-05
(PID.TID 0000.0001) %MON obc_N_vVel_sd                =  -6.7466918711356E-24
(PID.TID 0000.0001) %MON obc_N_vVel_Int               =   9.9024635952701E+02
(PID.TID 0000.0001) // =======================================================
(PID.TID 0000.0001) // End OBCS MONITOR field statistics
(PID.TID 0000.0001) // =======================================================
 cg2d: Sum(rhs),rhsMax =   4.50804404722416E+00  2.99973811828338E+02
(PID.TID 0000.0001)      cg2d_init_res =   1.29169969712288E-05
(PID.TID 0000.0001)      cg2d_iters(min,last) =      -1      85
(PID.TID 0000.0001)      cg2d_last_res =   9.22958054586514E-12
(PID.TID 0000.0001) // =======================================================
(PID.TID 0000.0001) // Begin MONITOR dynamic field statistics
(PID.TID 0000.0001) // =======================================================
(PID.TID 0000.0001) %MON time_tsnumber                =                  1569
(PID.TID 0000.0001) %MON time_secondsf                =   1.5690000000000E+05
(PID.TID 0000.0001) %MON dynstat_eta_max              =   5.8060395968808E+00
(PID.TID 0000.0001) %MON dynstat_eta_min              =  -1.4196829495764E+01
(PID.TID 0000.0001) %MON dynstat_eta_mean             =  -2.5042502902516E+00
(PID.TID 0000.0001) %MON dynstat_eta_sd               =   4.9502415067040E+00
(PID.TID 0000.0001) %MON dynstat_eta_del2             =   2.0717529704800E-01
(PID.TID 0000.0001) %MON dynstat_uvel_max             =   1.6866892725751E-02
(PID.TID 0000.0001) %MON dynstat_uvel_min             =  -7.3256154974493E-02
(PID.TID 0000.0001) %MON dynstat_uvel_mean            =  -1.0312073617675E-07
(PID.TID 0000.0001) %MON dynstat_uvel_sd              =   2.2009935767881E-03
(PID.TID 0000.0001) %MON dynstat_uvel_del2            =   3.4855006108350E-06
(PID.TID 0000.0001) %MON dynstat_vvel_max             =   4.3207046082896E-02
(PID.TID 0000.0001) %MON dynstat_vvel_min             =  -2.6662366198254E-02
(PID.TID 0000.0001) %MON dynstat_vvel_mean            =   1.5341889785778E-05
(PID.TID 0000.0001) %MON dynstat_vvel_sd              =   1.1313075937635E-03
(PID.TID 0000.0001) %MON dynstat_vvel_del2            =   2.3496801902303E-06
(PID.TID 0000.0001) %MON dynstat_wvel_max             =   2.4432882017421E-03
(PID.TID 0000.0001) %MON dynstat_wvel_min             =  -2.4097931518542E-03
(PID.TID 0000.0001) %MON dynstat_wvel_mean            =   7.6259103408961E-09
(PID.TID 0000.0001) %MON dynstat_wvel_sd              =   4.1651254867794E-05
(PID.TID 0000.0001) %MON dynstat_wvel_del2            =   1.6185695969983E-07
(PID.TID 0000.0001) %MON dynstat_theta_max            =   1.2000000000000E+00
(PID.TID 0000.0001) %MON dynstat_theta_min            =  -1.0000000000000E+00
(PID.TID 0000.0001) %MON dynstat_theta_mean           =   5.6803347330667E-01
(PID.TID 0000.0001) %MON dynstat_theta_sd             =   8.6801571799879E-01
(PID.TID 0000.0001) %MON dynstat_theta_del2           =   7.3345698295821E-06
(PID.TID 0000.0001) %MON dynstat_salt_max             =   3.4700000000000E+01
(PID.TID 0000.0001) %MON dynstat_salt_min             =   3.4000000000000E+01
(PID.TID 0000.0001) %MON dynstat_salt_mean            =   3.4498827365492E+01
(PID.TID 0000.0001) %MON dynstat_salt_sd              =   2.7615003406210E-01
(PID.TID 0000.0001) %MON dynstat_salt_del2            =   2.9085490817135E-06
(PID.TID 0000.0001) %MON advcfl_uvel_max              =   7.3256154974493E-03
(PID.TID 0000.0001) %MON advcfl_vvel_max              =   4.3207046082896E-03
(PID.TID 0000.0001) %MON advcfl_wvel_max              =   1.2216441008710E-02
(PID.TID 0000.0001) %MON advcfl_W_hf_max              =   1.2216441008710E-02
(PID.TID 0000.0001) %MON pe_b_mean                    =  -8.2960537945599E-01
(PID.TID 0000.0001) %MON ke_max                       =   2.4659928077910E-03
(PID.TID 0000.0001) %MON ke_mean                      =   3.0141885485172E-06
(PID.TID 0000.0001) %MON ke_vol                       =   4.2724647497582E+12
(PID.TID 0000.0001) // =======================================================
(PID.TID 0000.0001) // End MONITOR dynamic field statistics
(PID.TID 0000.0001) // =======================================================
(PID.TID 0000.0001) // =======================================================
(PID.TID 0000.0001) // Begin OBCS MONITOR field statistics
(PID.TID 0000.0001) // =======================================================
(PID.TID 0000.0001) %MON obc_N_vVel_max               =   1.5008309343163E-05
(PID.TID 0000.0001) %MON obc_N_vVel_min               =   1.5008309343163E-05
(PID.TID 0000.0001) %MON obc_N_vVel_mean              =   1.5008309343163E-05
(PID.TID 0000.0001) %MON obc_N_vVel_sd                =   5.2023375195165E-12
(PID.TID 0000.0001) %MON obc_N_vVel_Int               =   9.9054841664873E+02
(PID.TID 0000.0001) // =======================================================
(PID.TID 0000.0001) // End OBCS MONITOR field statistics
(PID.TID 0000.0001) // =======================================================
 cg2d: Sum(rhs),rhsMax =   4.50804171008634E+00  2.99973893554601E+02
(PID.TID 0000.0001)      cg2d_init_res =   1.29332442512199E-05
(PID.TID 0000.0001)      cg2d_iters(min,last) =      -1      85
(PID.TID 0000.0001)      cg2d_last_res =   9.23264050102913E-12
(PID.TID 0000.0001) // =======================================================
(PID.TID 0000.0001) // Begin MONITOR dynamic field statistics
(PID.TID 0000.0001) // =======================================================
(PID.TID 0000.0001) %MON time_tsnumber                =                  1570
(PID.TID 0000.0001) %MON time_secondsf                =   1.5700000000000E+05
(PID.TID 0000.0001) %MON dynstat_eta_max              =   5.8060842898263E+00
(PID.TID 0000.0001) %MON dynstat_eta_min              =  -1.4196859420835E+01
(PID.TID 0000.0001) %MON dynstat_eta_mean             =  -2.5042496742243E+00
(PID.TID 0000.0001) %MON dynstat_eta_sd               =   4.9502420277929E+00
(PID.TID 0000.0001) %MON dynstat_eta_del2             =   2.0717536279241E-01
(PID.TID 0000.0001) %MON dynstat_uvel_max             =   1.6901620952245E-02
(PID.TID 0000.0001) %MON dynstat_uvel_min             =  -7.3375475852656E-02
(PID.TID 0000.0001) %MON dynstat_uvel_mean            =  -1.0305117955244E-07
(PID.TID 0000.0001) %MON dynstat_uvel_sd              =   2.2054583104309E-03
(PID.TID 0000.0001) %MON dynstat_uvel_del2            =   3.4937931171656E-06
(PID.TID 0000.0001) %MON dynstat_vvel_max             =   4.3249959081961E-02
(PID.TID 0000.0001) %MON dynstat_vvel_min             =  -2.6719663074379E-02
(PID.TID 0000.0001) %MON dynstat_vvel_mean            =   1.5346102462964E-05
(PID.TID 0000.0001) %MON dynstat_vvel_sd              =   1.1334140664705E-03
(PID.TID 0000.0001) %MON dynstat_vvel_del2            =   2.3541039932449E-06
(PID.TID 0000.0001) %MON dynstat_wvel_max             =   2.4460921033675E-03
(PID.TID 0000.0001) %MON dynstat_wvel_min             =  -2.4127841702349E-03
(PID.TID 0000.0001) %MON dynstat_wvel_mean            =   7.6266059274632E-09
(PID.TID 0000.0001) %MON dynstat_wvel_sd              =   4.1710195111954E-05
(PID.TID 0000.0001) %MON dynstat_wvel_del2            =   1.6206578396194E-07
(PID.TID 0000.0001) %MON dynstat_theta_max            =   1.2000000000000E+00
(PID.TID 0000.0001) %MON dynstat_theta_min            =  -1.0000000000000E+00
(PID.TID 0000.0001) %MON dynstat_theta_mean           =   5.6803140767875E-01
(PID.TID 0000.0001) %MON dynstat_theta_sd             =   8.6801468231211E-01
(PID.TID 0000.0001) %MON dynstat_theta_del2           =   7.3474397088502E-06
(PID.TID 0000.0001) %MON dynstat_salt_max             =   3.4700000000000E+01
(PID.TID 0000.0001) %MON dynstat_salt_min             =   3.4000000000000E+01
(PID.TID 0000.0001) %MON dynstat_salt_mean            =   3.4498826538592E+01
(PID.TID 0000.0001) %MON dynstat_salt_sd              =   2.7614964196426E-01
(PID.TID 0000.0001) %MON dynstat_salt_del2            =   2.9136624978963E-06
(PID.TID 0000.0001) %MON advcfl_uvel_max              =   7.3375475852656E-03
(PID.TID 0000.0001) %MON advcfl_vvel_max              =   4.3249959081961E-03
(PID.TID 0000.0001) %MON advcfl_wvel_max              =   1.2230460516837E-02
(PID.TID 0000.0001) %MON advcfl_W_hf_max              =   1.2230460516837E-02
(PID.TID 0000.0001) %MON pe_b_mean                    =  -8.2960427634602E-01
(PID.TID 0000.0001) %MON ke_max                       =   2.4759680097526E-03
(PID.TID 0000.0001) %MON ke_mean                      =   3.0262156273722E-06
(PID.TID 0000.0001) %MON ke_vol                       =   4.2724647532759E+12
(PID.TID 0000.0001) // =======================================================
(PID.TID 0000.0001) // End MONITOR dynamic field statistics
(PID.TID 0000.0001) // =======================================================
(PID.TID 0000.0001) // =======================================================
(PID.TID 0000.0001) // Begin OBCS MONITOR field statistics
(PID.TID 0000.0001) // =======================================================
(PID.TID 0000.0001) %MON obc_N_vVel_max               =   1.5012296374280E-05
(PID.TID 0000.0001) %MON obc_N_vVel_min               =   1.5012296374280E-05
(PID.TID 0000.0001) %MON obc_N_vVel_mean              =   1.5012296374280E-05
(PID.TID 0000.0001) %MON obc_N_vVel_sd                =  -6.1263064117209E-24
(PID.TID 0000.0001) %MON obc_N_vVel_Int               =   9.9081156070249E+02
(PID.TID 0000.0001) // =======================================================
(PID.TID 0000.0001) // End OBCS MONITOR field statistics
(PID.TID 0000.0001) // =======================================================
 cg2d: Sum(rhs),rhsMax =   4.50803932845402E+00  2.99973975296421E+02
(PID.TID 0000.0001)      cg2d_init_res =   1.29493276451019E-05
(PID.TID 0000.0001)      cg2d_iters(min,last) =      -1      85
(PID.TID 0000.0001)      cg2d_last_res =   9.23540197984717E-12
(PID.TID 0000.0001) // =======================================================
(PID.TID 0000.0001) // Begin MONITOR dynamic field statistics
(PID.TID 0000.0001) // =======================================================
(PID.TID 0000.0001) %MON time_tsnumber                =                  1571
(PID.TID 0000.0001) %MON time_secondsf                =   1.5710000000000E+05
(PID.TID 0000.0001) %MON dynstat_eta_max              =   5.8061290979989E+00
(PID.TID 0000.0001) %MON dynstat_eta_min              =  -1.4196889346949E+01
(PID.TID 0000.0001) %MON dynstat_eta_mean             =  -2.5042490336092E+00
(PID.TID 0000.0001) %MON dynstat_eta_sd               =   4.9502425410697E+00
(PID.TID 0000.0001) %MON dynstat_eta_del2             =   2.0717542862111E-01
(PID.TID 0000.0001) %MON dynstat_uvel_max             =   1.6936398193055E-02
(PID.TID 0000.0001) %MON dynstat_uvel_min             =  -7.3494758643231E-02
(PID.TID 0000.0001) %MON dynstat_uvel_mean            =  -1.0297771661491E-07
(PID.TID 0000.0001) %MON dynstat_uvel_sd              =   2.2099290454080E-03
(PID.TID 0000.0001) %MON dynstat_uvel_del2            =   3.5021030303115E-06
(PID.TID 0000.0001) %MON dynstat_vvel_max             =   4.3292814378746E-02
(PID.TID 0000.0001) %MON dynstat_vvel_min             =  -2.6777016224548E-02
(PID.TID 0000.0001) %MON dynstat_vvel_mean            =   1.5349500827294E-05
(PID.TID 0000.0001) %MON dynstat_vvel_sd              =   1.1355241489778E-03
(PID.TID 0000.0001) %MON dynstat_vvel_del2            =   2.3585368101847E-06
(PID.TID 0000.0001) %MON dynstat_wvel_max             =   2.4488922115376E-03
(PID.TID 0000.0001) %MON dynstat_wvel_min             =  -2.4157669029797E-03
(PID.TID 0000.0001) %MON dynstat_wvel_mean            =   7.6257436440728E-09
(PID.TID 0000.0001) %MON dynstat_wvel_sd              =   4.1771303251204E-05
(PID.TID 0000.0001) %MON dynstat_wvel_del2            =   1.6228021873926E-07
(PID.TID 0000.0001) %MON dynstat_theta_max            =   1.2000000000000E+00
(PID.TID 0000.0001) %MON dynstat_theta_min            =  -1.0000000000000E+00
(PID.TID 0000.0001) %MON dynstat_theta_mean           =   5.6802933866760E-01
(PID.TID 0000.0001) %MON dynstat_theta_sd             =   8.6801364526683E-01
(PID.TID 0000.0001) %MON dynstat_theta_del2           =   7.3603222460897E-06
(PID.TID 0000.0001) %MON dynstat_salt_max             =   3.4700000000000E+01
(PID.TID 0000.0001) %MON dynstat_salt_min             =   3.4000000000000E+01
(PID.TID 0000.0001) %MON dynstat_salt_mean            =   3.4498825710337E+01
(PID.TID 0000.0001) %MON dynstat_salt_sd              =   2.7614924938450E-01
(PID.TID 0000.0001) %MON dynstat_salt_del2            =   2.9187813102600E-06
(PID.TID 0000.0001) %MON advcfl_uvel_max              =   7.3494758643231E-03
(PID.TID 0000.0001) %MON advcfl_vvel_max              =   4.3292814378746E-03
(PID.TID 0000.0001) %MON advcfl_wvel_max              =   1.2244461057688E-02
(PID.TID 0000.0001) %MON advcfl_W_hf_max              =   1.2244461057688E-02
(PID.TID 0000.0001) %MON pe_b_mean                    =  -8.2960316417585E-01
(PID.TID 0000.0001) %MON ke_max                       =   2.4859696654828E-03
(PID.TID 0000.0001) %MON ke_mean                      =   3.0382837680048E-06
(PID.TID 0000.0001) %MON ke_vol                       =   4.2724647569351E+12
(PID.TID 0000.0001) // =======================================================
(PID.TID 0000.0001) // End MONITOR dynamic field statistics
(PID.TID 0000.0001) // =======================================================
(PID.TID 0000.0001) // =======================================================
(PID.TID 0000.0001) // Begin OBCS MONITOR field statistics
(PID.TID 0000.0001) // =======================================================
(PID.TID 0000.0001) %MON obc_N_vVel_max               =   1.5015621751556E-05
(PID.TID 0000.0001) %MON obc_N_vVel_min               =   1.5015621751556E-05
(PID.TID 0000.0001) %MON obc_N_vVel_mean              =   1.5015621751556E-05
(PID.TID 0000.0001) %MON obc_N_vVel_sd                =   2.4436059516352E-12
(PID.TID 0000.0001) %MON obc_N_vVel_Int               =   9.9103103560269E+02
(PID.TID 0000.0001) // =======================================================
(PID.TID 0000.0001) // End OBCS MONITOR field statistics
(PID.TID 0000.0001) // =======================================================
 cg2d: Sum(rhs),rhsMax =   4.50803690099661E+00  2.99974057043690E+02
(PID.TID 0000.0001)      cg2d_init_res =   1.29652851650610E-05
(PID.TID 0000.0001)      cg2d_iters(min,last) =      -1      85
(PID.TID 0000.0001)      cg2d_last_res =   9.23793906535519E-12
(PID.TID 0000.0001) // =======================================================
(PID.TID 0000.0001) // Begin MONITOR dynamic field statistics
(PID.TID 0000.0001) // =======================================================
(PID.TID 0000.0001) %MON time_tsnumber                =                  1572
(PID.TID 0000.0001) %MON time_secondsf                =   1.5720000000000E+05
(PID.TID 0000.0001) %MON dynstat_eta_max              =   5.8061740232618E+00
(PID.TID 0000.0001) %MON dynstat_eta_min              =  -1.4196919273163E+01
(PID.TID 0000.0001) %MON dynstat_eta_mean             =  -2.5042483675826E+00
(PID.TID 0000.0001) %MON dynstat_eta_sd               =   4.9502430462258E+00
(PID.TID 0000.0001) %MON dynstat_eta_del2             =   2.0717549453394E-01
(PID.TID 0000.0001) %MON dynstat_uvel_max             =   1.6971224482543E-02
(PID.TID 0000.0001) %MON dynstat_uvel_min             =  -7.3614002753772E-02
(PID.TID 0000.0001) %MON dynstat_uvel_mean            =  -1.0290130305038E-07
(PID.TID 0000.0001) %MON dynstat_uvel_sd              =   2.2144057769259E-03
(PID.TID 0000.0001) %MON dynstat_uvel_del2            =   3.5104303648995E-06
(PID.TID 0000.0001) %MON dynstat_vvel_max             =   4.3335611765652E-02
(PID.TID 0000.0001) %MON dynstat_vvel_min             =  -2.6834425122285E-02
(PID.TID 0000.0001) %MON dynstat_vvel_mean            =   1.5352032216438E-05
(PID.TID 0000.0001) %MON dynstat_vvel_sd              =   1.1376379492996E-03
(PID.TID 0000.0001) %MON dynstat_vvel_del2            =   2.3629789995616E-06
(PID.TID 0000.0001) %MON dynstat_wvel_max             =   2.4516885167330E-03
(PID.TID 0000.0001) %MON dynstat_wvel_min             =  -2.4187411784342E-03
(PID.TID 0000.0001) %MON dynstat_wvel_mean            =   7.6233987275090E-09
(PID.TID 0000.0001) %MON dynstat_wvel_sd              =   4.1834960591503E-05
(PID.TID 0000.0001) %MON dynstat_wvel_del2            =   1.6250177092714E-07
(PID.TID 0000.0001) %MON dynstat_theta_max            =   1.2000000000000E+00
(PID.TID 0000.0001) %MON dynstat_theta_min            =  -1.0000000000000E+00
(PID.TID 0000.0001) %MON dynstat_theta_mean           =   5.6802726626807E-01
(PID.TID 0000.0001) %MON dynstat_theta_sd             =   8.6801260686206E-01
(PID.TID 0000.0001) %MON dynstat_theta_del2           =   7.3732169492676E-06
(PID.TID 0000.0001) %MON dynstat_salt_max             =   3.4700000000000E+01
(PID.TID 0000.0001) %MON dynstat_salt_min             =   3.4000000000000E+01
(PID.TID 0000.0001) %MON dynstat_salt_mean            =   3.4498824880726E+01
(PID.TID 0000.0001) %MON dynstat_salt_sd              =   2.7614885632240E-01
(PID.TID 0000.0001) %MON dynstat_salt_del2            =   2.9239053968202E-06
(PID.TID 0000.0001) %MON advcfl_uvel_max              =   7.3614002753772E-03
(PID.TID 0000.0001) %MON advcfl_vvel_max              =   4.3335611765652E-03
(PID.TID 0000.0001) %MON advcfl_wvel_max              =   1.2258442583665E-02
(PID.TID 0000.0001) %MON advcfl_W_hf_max              =   1.2258442583665E-02
(PID.TID 0000.0001) %MON pe_b_mean                    =  -8.2960204271465E-01
(PID.TID 0000.0001) %MON ke_max                       =   2.4959977643105E-03
(PID.TID 0000.0001) %MON ke_mean                      =   3.0503931838167E-06
(PID.TID 0000.0001) %MON ke_vol                       =   4.2724647607404E+12
(PID.TID 0000.0001) // =======================================================
(PID.TID 0000.0001) // End MONITOR dynamic field statistics
(PID.TID 0000.0001) // =======================================================
(PID.TID 0000.0001) // =======================================================
(PID.TID 0000.0001) // Begin OBCS MONITOR field statistics
(PID.TID 0000.0001) // =======================================================
(PID.TID 0000.0001) %MON obc_N_vVel_max               =   1.5018228949923E-05
(PID.TID 0000.0001) %MON obc_N_vVel_min               =   1.5018228949922E-05
(PID.TID 0000.0001) %MON obc_N_vVel_mean              =   1.5018228949922E-05
(PID.TID 0000.0001) %MON obc_N_vVel_sd                =   2.9776403729804E-12
(PID.TID 0000.0001) %MON obc_N_vVel_Int               =   9.9120311069485E+02
(PID.TID 0000.0001) // =======================================================
(PID.TID 0000.0001) // End OBCS MONITOR field statistics
(PID.TID 0000.0001) // =======================================================
 cg2d: Sum(rhs),rhsMax =   4.50803442628748E+00  2.99974138787393E+02
(PID.TID 0000.0001)      cg2d_init_res =   1.29811546878474E-05
(PID.TID 0000.0001)      cg2d_iters(min,last) =      -1      85
(PID.TID 0000.0001)      cg2d_last_res =   9.24034865393260E-12
(PID.TID 0000.0001) // =======================================================
(PID.TID 0000.0001) // Begin MONITOR dynamic field statistics
(PID.TID 0000.0001) // =======================================================
(PID.TID 0000.0001) %MON time_tsnumber                =                  1573
(PID.TID 0000.0001) %MON time_secondsf                =   1.5730000000000E+05
(PID.TID 0000.0001) %MON dynstat_eta_max              =   5.8062190675359E+00
(PID.TID 0000.0001) %MON dynstat_eta_min              =  -1.4196949198528E+01
(PID.TID 0000.0001) %MON dynstat_eta_mean             =  -2.5042476752769E+00
(PID.TID 0000.0001) %MON dynstat_eta_sd               =   4.9502435429545E+00
(PID.TID 0000.0001) %MON dynstat_eta_del2             =   2.0717556053083E-01
(PID.TID 0000.0001) %MON dynstat_uvel_max             =   1.7006099854106E-02
(PID.TID 0000.0001) %MON dynstat_uvel_min             =  -7.3733207600211E-02
(PID.TID 0000.0001) %MON dynstat_uvel_mean            =  -1.0282294944944E-07
(PID.TID 0000.0001) %MON dynstat_uvel_sd              =   2.2188885001213E-03
(PID.TID 0000.0001) %MON dynstat_uvel_del2            =   3.5187751354349E-06
(PID.TID 0000.0001) %MON dynstat_vvel_max             =   4.3378351051016E-02
(PID.TID 0000.0001) %MON dynstat_vvel_min             =  -2.6891889229571E-02
(PID.TID 0000.0001) %MON dynstat_vvel_mean            =   1.5353663957514E-05
(PID.TID 0000.0001) %MON dynstat_vvel_sd              =   1.1397555488675E-03
(PID.TID 0000.0001) %MON dynstat_vvel_del2            =   2.3674308118423E-06
(PID.TID 0000.0001) %MON dynstat_wvel_max             =   2.4544810141924E-03
(PID.TID 0000.0001) %MON dynstat_wvel_min             =  -2.4217068243812E-03
(PID.TID 0000.0001) %MON dynstat_wvel_mean            =   7.6196790628386E-09
(PID.TID 0000.0001) %MON dynstat_wvel_sd              =   4.1901433101206E-05
(PID.TID 0000.0001) %MON dynstat_wvel_del2            =   1.6273159712636E-07
(PID.TID 0000.0001) %MON dynstat_theta_max            =   1.2000000000000E+00
(PID.TID 0000.0001) %MON dynstat_theta_min            =  -1.0000000000000E+00
(PID.TID 0000.0001) %MON dynstat_theta_mean           =   5.6802519047485E-01
(PID.TID 0000.0001) %MON dynstat_theta_sd             =   8.6801156709564E-01
(PID.TID 0000.0001) %MON dynstat_theta_del2           =   7.3861234584609E-06
(PID.TID 0000.0001) %MON dynstat_salt_max             =   3.4700000000000E+01
(PID.TID 0000.0001) %MON dynstat_salt_min             =   3.4000000000000E+01
(PID.TID 0000.0001) %MON dynstat_salt_mean            =   3.4498824049757E+01
(PID.TID 0000.0001) %MON dynstat_salt_sd              =   2.7614846277778E-01
(PID.TID 0000.0001) %MON dynstat_salt_del2            =   2.9290346902562E-06
(PID.TID 0000.0001) %MON advcfl_uvel_max              =   7.3733207600211E-03
(PID.TID 0000.0001) %MON advcfl_vvel_max              =   4.3378351051016E-03
(PID.TID 0000.0001) %MON advcfl_wvel_max              =   1.2272405070962E-02
(PID.TID 0000.0001) %MON advcfl_W_hf_max              =   1.2272405070962E-02
(PID.TID 0000.0001) %MON pe_b_mean                    =  -8.2960091172479E-01
(PID.TID 0000.0001) %MON ke_max                       =   2.5060522954009E-03
(PID.TID 0000.0001) %MON ke_mean                      =   3.0625440590444E-06
(PID.TID 0000.0001) %MON ke_vol                       =   4.2724647646966E+12
(PID.TID 0000.0001) // =======================================================
(PID.TID 0000.0001) // End MONITOR dynamic field statistics
(PID.TID 0000.0001) // =======================================================
(PID.TID 0000.0001) // =======================================================
(PID.TID 0000.0001) // Begin OBCS MONITOR field statistics
(PID.TID 0000.0001) // =======================================================
(PID.TID 0000.0001) %MON obc_N_vVel_max               =   1.5020078081105E-05
(PID.TID 0000.0001) %MON obc_N_vVel_min               =   1.5020078081105E-05
(PID.TID 0000.0001) %MON obc_N_vVel_mean              =   1.5020078081105E-05
(PID.TID 0000.0001) %MON obc_N_vVel_sd                =   3.3609798035956E-12
(PID.TID 0000.0001) %MON obc_N_vVel_Int               =   9.9132515335292E+02
(PID.TID 0000.0001) // =======================================================
(PID.TID 0000.0001) // End OBCS MONITOR field statistics
(PID.TID 0000.0001) // =======================================================
 cg2d: Sum(rhs),rhsMax =   4.50803190283600E+00  2.99974220519792E+02
(PID.TID 0000.0001)      cg2d_init_res =   1.29969771626433E-05
(PID.TID 0000.0001)      cg2d_iters(min,last) =      -1      85
(PID.TID 0000.0001)      cg2d_last_res =   9.24273402736040E-12
(PID.TID 0000.0001) // =======================================================
(PID.TID 0000.0001) // Begin MONITOR dynamic field statistics
(PID.TID 0000.0001) // =======================================================
(PID.TID 0000.0001) %MON time_tsnumber                =                  1574
(PID.TID 0000.0001) %MON time_secondsf                =   1.5740000000000E+05
(PID.TID 0000.0001) %MON dynstat_eta_max              =   5.8062642327488E+00
(PID.TID 0000.0001) %MON dynstat_eta_min              =  -1.4196979122096E+01
(PID.TID 0000.0001) %MON dynstat_eta_mean             =  -2.5042469557992E+00
(PID.TID 0000.0001) %MON dynstat_eta_sd               =   4.9502440309590E+00
(PID.TID 0000.0001) %MON dynstat_eta_del2             =   2.0717562661177E-01
(PID.TID 0000.0001) %MON dynstat_uvel_max             =   1.7041024340342E-02
(PID.TID 0000.0001) %MON dynstat_uvel_min             =  -7.3852372608159E-02
(PID.TID 0000.0001) %MON dynstat_uvel_mean            =  -1.0274369597280E-07
(PID.TID 0000.0001) %MON dynstat_uvel_sd              =   2.2233772100631E-03
(PID.TID 0000.0001) %MON dynstat_uvel_del2            =   3.5271373563689E-06
(PID.TID 0000.0001) %MON dynstat_vvel_max             =   4.3421032048044E-02
(PID.TID 0000.0001) %MON dynstat_vvel_min             =  -2.6949407997023E-02
(PID.TID 0000.0001) %MON dynstat_vvel_mean            =   1.5354383922068E-05
(PID.TID 0000.0001) %MON dynstat_vvel_sd              =   1.1418769999894E-03
(PID.TID 0000.0001) %MON dynstat_vvel_del2            =   2.3718923792085E-06
(PID.TID 0000.0001) %MON dynstat_wvel_max             =   2.4572696975242E-03
(PID.TID 0000.0001) %MON dynstat_wvel_min             =  -2.4246636681116E-03
(PID.TID 0000.0001) %MON dynstat_wvel_mean            =   7.6147215620263E-09
(PID.TID 0000.0001) %MON dynstat_wvel_sd              =   4.1970861195952E-05
(PID.TID 0000.0001) %MON dynstat_wvel_del2            =   1.6297044700204E-07
(PID.TID 0000.0001) %MON dynstat_theta_max            =   1.2000000000000E+00
(PID.TID 0000.0001) %MON dynstat_theta_min            =  -1.0000000000000E+00
(PID.TID 0000.0001) %MON dynstat_theta_mean           =   5.6802311128248E-01
(PID.TID 0000.0001) %MON dynstat_theta_sd             =   8.6801052596369E-01
(PID.TID 0000.0001) %MON dynstat_theta_del2           =   7.3990415780023E-06
(PID.TID 0000.0001) %MON dynstat_salt_max             =   3.4700000000000E+01
(PID.TID 0000.0001) %MON dynstat_salt_min             =   3.4000000000000E+01
(PID.TID 0000.0001) %MON dynstat_salt_mean            =   3.4498823217427E+01
(PID.TID 0000.0001) %MON dynstat_salt_sd              =   2.7614806874947E-01
(PID.TID 0000.0001) %MON dynstat_salt_del2            =   2.9341691224562E-06
(PID.TID 0000.0001) %MON advcfl_uvel_max              =   7.3852372608159E-03
(PID.TID 0000.0001) %MON advcfl_vvel_max              =   4.3421032048044E-03
(PID.TID 0000.0001) %MON advcfl_wvel_max              =   1.2286348487621E-02
(PID.TID 0000.0001) %MON advcfl_W_hf_max              =   1.2286348487621E-02
(PID.TID 0000.0001) %MON pe_b_mean                    =  -8.2959977096705E-01
(PID.TID 0000.0001) %MON ke_max                       =   2.5161332478472E-03
(PID.TID 0000.0001) %MON ke_mean                      =   3.0747365455920E-06
(PID.TID 0000.0001) %MON ke_vol                       =   4.2724647688089E+12
(PID.TID 0000.0001) // =======================================================
(PID.TID 0000.0001) // End MONITOR dynamic field statistics
(PID.TID 0000.0001) // =======================================================
(PID.TID 0000.0001) // =======================================================
(PID.TID 0000.0001) // Begin OBCS MONITOR field statistics
(PID.TID 0000.0001) // =======================================================
(PID.TID 0000.0001) %MON obc_N_vVel_max               =   1.5021146722871E-05
(PID.TID 0000.0001) %MON obc_N_vVel_min               =   1.5021146722871E-05
(PID.TID 0000.0001) %MON obc_N_vVel_mean              =   1.5021146722871E-05
(PID.TID 0000.0001) %MON obc_N_vVel_sd                =   3.1628650829688E-12
(PID.TID 0000.0001) %MON obc_N_vVel_Int               =   9.9139568370946E+02
(PID.TID 0000.0001) // =======================================================
(PID.TID 0000.0001) // End OBCS MONITOR field statistics
(PID.TID 0000.0001) // =======================================================
 cg2d: Sum(rhs),rhsMax =   4.50802932912110E+00  2.99974302234555E+02
(PID.TID 0000.0001)      cg2d_init_res =   1.30127851053021E-05
(PID.TID 0000.0001)      cg2d_iters(min,last) =      -1      85
(PID.TID 0000.0001)      cg2d_last_res =   9.24519376328396E-12
(PID.TID 0000.0001) // =======================================================
(PID.TID 0000.0001) // Begin MONITOR dynamic field statistics
(PID.TID 0000.0001) // =======================================================
(PID.TID 0000.0001) %MON time_tsnumber                =                  1575
(PID.TID 0000.0001) %MON time_secondsf                =   1.5750000000000E+05
(PID.TID 0000.0001) %MON dynstat_eta_max              =   5.8063095207965E+00
(PID.TID 0000.0001) %MON dynstat_eta_min              =  -1.4197009042949E+01
(PID.TID 0000.0001) %MON dynstat_eta_mean             =  -2.5042462082519E+00
(PID.TID 0000.0001) %MON dynstat_eta_sd               =   4.9502445099545E+00
(PID.TID 0000.0001) %MON dynstat_eta_del2             =   2.0717569277667E-01
(PID.TID 0000.0001) %MON dynstat_uvel_max             =   1.7075997973018E-02
(PID.TID 0000.0001) %MON dynstat_uvel_min             =  -7.3971497213233E-02
(PID.TID 0000.0001) %MON dynstat_uvel_mean            =  -1.0266459254542E-07
(PID.TID 0000.0001) %MON dynstat_uvel_sd              =   2.2278719017434E-03
(PID.TID 0000.0001) %MON dynstat_uvel_del2            =   3.5355170427696E-06
(PID.TID 0000.0001) %MON dynstat_vvel_max             =   4.3463654574519E-02
(PID.TID 0000.0001) %MON dynstat_vvel_min             =  -2.7006980864027E-02
(PID.TID 0000.0001) %MON dynstat_vvel_mean            =   1.5354200604815E-05
(PID.TID 0000.0001) %MON dynstat_vvel_sd              =   1.1440023246750E-03
(PID.TID 0000.0001) %MON dynstat_vvel_del2            =   2.3763637111911E-06
(PID.TID 0000.0001) %MON dynstat_wvel_max             =   2.4600545597297E-03
(PID.TID 0000.0001) %MON dynstat_wvel_min             =  -2.4276115363054E-03
(PID.TID 0000.0001) %MON dynstat_wvel_mean            =   7.6086901186955E-09
(PID.TID 0000.0001) %MON dynstat_wvel_sd              =   4.2043255555213E-05
(PID.TID 0000.0001) %MON dynstat_wvel_del2            =   1.6321862995876E-07
(PID.TID 0000.0001) %MON dynstat_theta_max            =   1.2000000000000E+00
(PID.TID 0000.0001) %MON dynstat_theta_min            =  -1.0000000000000E+00
(PID.TID 0000.0001) %MON dynstat_theta_mean           =   5.6802102868537E-01
(PID.TID 0000.0001) %MON dynstat_theta_sd             =   8.6800948346265E-01
(PID.TID 0000.0001) %MON dynstat_theta_del2           =   7.4119713190287E-06
(PID.TID 0000.0001) %MON dynstat_salt_max             =   3.4700000000000E+01
(PID.TID 0000.0001) %MON dynstat_salt_min             =   3.4000000000000E+01
(PID.TID 0000.0001) %MON dynstat_salt_mean            =   3.4498822383736E+01
(PID.TID 0000.0001) %MON dynstat_salt_sd              =   2.7614767423650E-01
(PID.TID 0000.0001) %MON dynstat_salt_del2            =   2.9393086811799E-06
(PID.TID 0000.0001) %MON advcfl_uvel_max              =   7.3971497213233E-03
(PID.TID 0000.0001) %MON advcfl_vvel_max              =   4.3463654574519E-03
(PID.TID 0000.0001) %MON advcfl_wvel_max              =   1.2300272798648E-02
(PID.TID 0000.0001) %MON advcfl_W_hf_max              =   1.2300272798648E-02
(PID.TID 0000.0001) %MON pe_b_mean                    =  -8.2959862020577E-01
(PID.TID 0000.0001) %MON ke_max                       =   2.5262406106992E-03
(PID.TID 0000.0001) %MON ke_mean                      =   3.0869707613618E-06
(PID.TID 0000.0001) %MON ke_vol                       =   4.2724647730826E+12
(PID.TID 0000.0001) // =======================================================
(PID.TID 0000.0001) // End MONITOR dynamic field statistics
(PID.TID 0000.0001) // =======================================================
(PID.TID 0000.0001) // =======================================================
(PID.TID 0000.0001) // Begin OBCS MONITOR field statistics
(PID.TID 0000.0001) // =======================================================
(PID.TID 0000.0001) %MON obc_N_vVel_max               =   1.5021430192960E-05
(PID.TID 0000.0001) %MON obc_N_vVel_min               =   1.5021430192960E-05
(PID.TID 0000.0001) %MON obc_N_vVel_mean              =   1.5021430192960E-05
(PID.TID 0000.0001) %MON obc_N_vVel_sd                =   3.5407564388146E-12
(PID.TID 0000.0001) %MON obc_N_vVel_Int               =   9.9141439273533E+02
(PID.TID 0000.0001) // =======================================================
(PID.TID 0000.0001) // End OBCS MONITOR field statistics
(PID.TID 0000.0001) // =======================================================
 cg2d: Sum(rhs),rhsMax =   4.50802670362483E+00  2.99974383926884E+02
(PID.TID 0000.0001)      cg2d_init_res =   1.30286174373045E-05
(PID.TID 0000.0001)      cg2d_iters(min,last) =      -1      85
(PID.TID 0000.0001)      cg2d_last_res =   9.24784154950977E-12
(PID.TID 0000.0001) // =======================================================
(PID.TID 0000.0001) // Begin MONITOR dynamic field statistics
(PID.TID 0000.0001) // =======================================================
(PID.TID 0000.0001) %MON time_tsnumber                =                  1576
(PID.TID 0000.0001) %MON time_secondsf                =   1.5760000000000E+05
(PID.TID 0000.0001) %MON dynstat_eta_max              =   5.8063549335145E+00
(PID.TID 0000.0001) %MON dynstat_eta_min              =  -1.4197038960223E+01
(PID.TID 0000.0001) %MON dynstat_eta_mean             =  -2.5042454317515E+00
(PID.TID 0000.0001) %MON dynstat_eta_sd               =   4.9502449796782E+00
(PID.TID 0000.0001) %MON dynstat_eta_del2             =   2.0717575902557E-01
(PID.TID 0000.0001) %MON dynstat_uvel_max             =   1.7111020782815E-02
(PID.TID 0000.0001) %MON dynstat_uvel_min             =  -7.4090580861163E-02
(PID.TID 0000.0001) %MON dynstat_uvel_mean            =  -1.0258666994185E-07
(PID.TID 0000.0001) %MON dynstat_uvel_sd              =   2.2323725700417E-03
(PID.TID 0000.0001) %MON dynstat_uvel_del2            =   3.5439142085541E-06
(PID.TID 0000.0001) %MON dynstat_vvel_max             =   4.3506218453111E-02
(PID.TID 0000.0001) %MON dynstat_vvel_min             =  -2.7064607259192E-02
(PID.TID 0000.0001) %MON dynstat_vvel_mean            =   1.5353142729882E-05
(PID.TID 0000.0001) %MON dynstat_vvel_sd              =   1.1461315148606E-03
(PID.TID 0000.0001) %MON dynstat_vvel_del2            =   2.3808446979964E-06
(PID.TID 0000.0001) %MON dynstat_wvel_max             =   2.4628355937890E-03
(PID.TID 0000.0001) %MON dynstat_wvel_min             =  -2.4305502550503E-03
(PID.TID 0000.0001) %MON dynstat_wvel_mean            =   7.6017708799472E-09
(PID.TID 0000.0001) %MON dynstat_wvel_sd              =   4.2118499103902E-05
(PID.TID 0000.0001) %MON dynstat_wvel_del2            =   1.6347600658730E-07
(PID.TID 0000.0001) %MON dynstat_theta_max            =   1.2000000000000E+00
(PID.TID 0000.0001) %MON dynstat_theta_min            =  -1.0000000000000E+00
(PID.TID 0000.0001) %MON dynstat_theta_mean           =   5.6801894267787E-01
(PID.TID 0000.0001) %MON dynstat_theta_sd             =   8.6800843959013E-01
(PID.TID 0000.0001) %MON dynstat_theta_del2           =   7.4249128490346E-06
(PID.TID 0000.0001) %MON dynstat_salt_max             =   3.4700000000000E+01
(PID.TID 0000.0001) %MON dynstat_salt_min             =   3.4000000000000E+01
(PID.TID 0000.0001) %MON dynstat_salt_mean            =   3.4498821548680E+01
(PID.TID 0000.0001) %MON dynstat_salt_sd              =   2.7614727923824E-01
(PID.TID 0000.0001) %MON dynstat_salt_del2            =   2.9444533948098E-06
(PID.TID 0000.0001) %MON advcfl_uvel_max              =   7.4090580861163E-03
(PID.TID 0000.0001) %MON advcfl_vvel_max              =   4.3506218453111E-03
(PID.TID 0000.0001) %MON advcfl_wvel_max              =   1.2314177968945E-02
(PID.TID 0000.0001) %MON advcfl_W_hf_max              =   1.2314177968945E-02
(PID.TID 0000.0001) %MON pe_b_mean                    =  -8.2959745921395E-01
(PID.TID 0000.0001) %MON ke_max                       =   2.5363743729789E-03
(PID.TID 0000.0001) %MON ke_mean                      =   3.0992467901041E-06
(PID.TID 0000.0001) %MON ke_vol                       =   4.2724647775230E+12
(PID.TID 0000.0001) // =======================================================
(PID.TID 0000.0001) // End MONITOR dynamic field statistics
(PID.TID 0000.0001) // =======================================================
(PID.TID 0000.0001) // =======================================================
(PID.TID 0000.0001) // Begin OBCS MONITOR field statistics
(PID.TID 0000.0001) // =======================================================
(PID.TID 0000.0001) %MON obc_N_vVel_max               =   1.5020941496621E-05
(PID.TID 0000.0001) %MON obc_N_vVel_min               =   1.5020941496620E-05
(PID.TID 0000.0001) %MON obc_N_vVel_mean              =   1.5020941496621E-05
(PID.TID 0000.0001) %MON obc_N_vVel_sd                =  -1.2976395859426E-23
(PID.TID 0000.0001) %MON obc_N_vVel_Int               =   9.9138213877696E+02
(PID.TID 0000.0001) // =======================================================
(PID.TID 0000.0001) // End OBCS MONITOR field statistics
(PID.TID 0000.0001) // =======================================================
 cg2d: Sum(rhs),rhsMax =   4.50802402486580E+00  2.99974465593566E+02
(PID.TID 0000.0001)      cg2d_init_res =   1.30444965562482E-05
(PID.TID 0000.0001)      cg2d_iters(min,last) =      -1      85
(PID.TID 0000.0001)      cg2d_last_res =   9.25075620620183E-12
(PID.TID 0000.0001) // =======================================================
(PID.TID 0000.0001) // Begin MONITOR dynamic field statistics
(PID.TID 0000.0001) // =======================================================
(PID.TID 0000.0001) %MON time_tsnumber                =                  1577
(PID.TID 0000.0001) %MON time_secondsf                =   1.5770000000000E+05
(PID.TID 0000.0001) %MON dynstat_eta_max              =   5.8064004726194E+00
(PID.TID 0000.0001) %MON dynstat_eta_min              =  -1.4197068873113E+01
(PID.TID 0000.0001) %MON dynstat_eta_mean             =  -2.5042446254483E+00
(PID.TID 0000.0001) %MON dynstat_eta_sd               =   4.9502454398932E+00
(PID.TID 0000.0001) %MON dynstat_eta_del2             =   2.0717582535842E-01
(PID.TID 0000.0001) %MON dynstat_uvel_max             =   1.7146092751169E-02
(PID.TID 0000.0001) %MON dynstat_uvel_min             =  -7.4209623006887E-02
(PID.TID 0000.0001) %MON dynstat_uvel_mean            =  -1.0251090956922E-07
(PID.TID 0000.0001) %MON dynstat_uvel_sd              =   2.2368792097225E-03
(PID.TID 0000.0001) %MON dynstat_uvel_del2            =   3.5523288677742E-06
(PID.TID 0000.0001) %MON dynstat_vvel_max             =   4.3548723511245E-02
(PID.TID 0000.0001) %MON dynstat_vvel_min             =  -2.7122286598271E-02
(PID.TID 0000.0001) %MON dynstat_vvel_mean            =   1.5351258422052E-05
(PID.TID 0000.0001) %MON dynstat_vvel_sd              =   1.1482645339458E-03
(PID.TID 0000.0001) %MON dynstat_vvel_del2            =   2.3853351192149E-06
(PID.TID 0000.0001) %MON dynstat_wvel_max             =   2.4656127926092E-03
(PID.TID 0000.0001) %MON dynstat_wvel_min             =  -2.4334796498857E-03
(PID.TID 0000.0001) %MON dynstat_wvel_mean            =   7.5941692435239E-09
(PID.TID 0000.0001) %MON dynstat_wvel_sd              =   4.2196355072888E-05
(PID.TID 0000.0001) %MON dynstat_wvel_del2            =   1.6374200657044E-07
(PID.TID 0000.0001) %MON dynstat_theta_max            =   1.2000000000000E+00
(PID.TID 0000.0001) %MON dynstat_theta_min            =  -1.0000000000000E+00
(PID.TID 0000.0001) %MON dynstat_theta_mean           =   5.6801685325428E-01
(PID.TID 0000.0001) %MON dynstat_theta_sd             =   8.6800739434252E-01
(PID.TID 0000.0001) %MON dynstat_theta_del2           =   7.4378654778901E-06
(PID.TID 0000.0001) %MON dynstat_salt_max             =   3.4700000000000E+01
(PID.TID 0000.0001) %MON dynstat_salt_min             =   3.4000000000000E+01
(PID.TID 0000.0001) %MON dynstat_salt_mean            =   3.4498820712258E+01
(PID.TID 0000.0001) %MON dynstat_salt_sd              =   2.7614688375369E-01
(PID.TID 0000.0001) %MON dynstat_salt_del2            =   2.9496030084229E-06
(PID.TID 0000.0001) %MON advcfl_uvel_max              =   7.4209623006887E-03
(PID.TID 0000.0001) %MON advcfl_vvel_max              =   4.3548723511245E-03
(PID.TID 0000.0001) %MON advcfl_wvel_max              =   1.2328063963046E-02
(PID.TID 0000.0001) %MON advcfl_W_hf_max              =   1.2328063963046E-02
(PID.TID 0000.0001) %MON pe_b_mean                    =  -8.2959628777806E-01
(PID.TID 0000.0001) %MON ke_max                       =   2.5465345236298E-03
(PID.TID 0000.0001) %MON ke_mean                      =   3.1115646828409E-06
(PID.TID 0000.0001) %MON ke_vol                       =   4.2724647821354E+12
(PID.TID 0000.0001) // =======================================================
(PID.TID 0000.0001) // End MONITOR dynamic field statistics
(PID.TID 0000.0001) // =======================================================
(PID.TID 0000.0001) // =======================================================
(PID.TID 0000.0001) // Begin OBCS MONITOR field statistics
(PID.TID 0000.0001) // =======================================================
(PID.TID 0000.0001) %MON obc_N_vVel_max               =   1.5019710848242E-05
(PID.TID 0000.0001) %MON obc_N_vVel_min               =   1.5019710848242E-05
(PID.TID 0000.0001) %MON obc_N_vVel_mean              =   1.5019710848242E-05
(PID.TID 0000.0001) %MON obc_N_vVel_sd                =   4.2476907975173E-12
(PID.TID 0000.0001) %MON obc_N_vVel_Int               =   9.9130091598396E+02
(PID.TID 0000.0001) // =======================================================
(PID.TID 0000.0001) // End OBCS MONITOR field statistics
(PID.TID 0000.0001) // =======================================================
 cg2d: Sum(rhs),rhsMax =   4.50802129143141E+00  2.99974547233027E+02
(PID.TID 0000.0001)      cg2d_init_res =   1.30604539993149E-05
(PID.TID 0000.0001)      cg2d_iters(min,last) =      -1      85
(PID.TID 0000.0001)      cg2d_last_res =   9.25405427797435E-12
(PID.TID 0000.0001) // =======================================================
(PID.TID 0000.0001) // Begin MONITOR dynamic field statistics
(PID.TID 0000.0001) // =======================================================
(PID.TID 0000.0001) %MON time_tsnumber                =                  1578
(PID.TID 0000.0001) %MON time_secondsf                =   1.5780000000000E+05
(PID.TID 0000.0001) %MON dynstat_eta_max              =   5.8064461396956E+00
(PID.TID 0000.0001) %MON dynstat_eta_min              =  -1.4197098780897E+01
(PID.TID 0000.0001) %MON dynstat_eta_mean             =  -2.5042437885444E+00
(PID.TID 0000.0001) %MON dynstat_eta_sd               =   4.9502458903940E+00
(PID.TID 0000.0001) %MON dynstat_eta_del2             =   2.0717589177521E-01
(PID.TID 0000.0001) %MON dynstat_uvel_max             =   1.7181213906330E-02
(PID.TID 0000.0001) %MON dynstat_uvel_min             =  -7.4328623114933E-02
(PID.TID 0000.0001) %MON dynstat_uvel_mean            =  -1.0243822375972E-07
(PID.TID 0000.0001) %MON dynstat_uvel_sd              =   2.2413918154472E-03
(PID.TID 0000.0001) %MON dynstat_uvel_del2            =   3.5607610335434E-06
(PID.TID 0000.0001) %MON dynstat_vvel_max             =   4.3591169580717E-02
(PID.TID 0000.0001) %MON dynstat_vvel_min             =  -2.7180018235814E-02
(PID.TID 0000.0001) %MON dynstat_vvel_mean            =   1.5348613940036E-05
(PID.TID 0000.0001) %MON dynstat_vvel_sd              =   1.1504013195192E-03
(PID.TID 0000.0001) %MON dynstat_vvel_del2            =   2.3898346566048E-06
(PID.TID 0000.0001) %MON dynstat_wvel_max             =   2.4683861490471E-03
(PID.TID 0000.0001) %MON dynstat_wvel_min             =  -2.4363995530379E-03
(PID.TID 0000.0001) %MON dynstat_wvel_mean            =   7.5861025732395E-09
(PID.TID 0000.0001) %MON dynstat_wvel_sd              =   4.2276480363872E-05
(PID.TID 0000.0001) %MON dynstat_wvel_del2            =   1.6401566602891E-07
(PID.TID 0000.0001) %MON dynstat_theta_max            =   1.2000000000000E+00
(PID.TID 0000.0001) %MON dynstat_theta_min            =  -1.0000000000000E+00
(PID.TID 0000.0001) %MON dynstat_theta_mean           =   5.6801476040889E-01
(PID.TID 0000.0001) %MON dynstat_theta_sd             =   8.6800634771709E-01
(PID.TID 0000.0001) %MON dynstat_theta_del2           =   7.4508304758509E-06
(PID.TID 0000.0001) %MON dynstat_salt_max             =   3.4700000000000E+01
(PID.TID 0000.0001) %MON dynstat_salt_min             =   3.4000000000000E+01
(PID.TID 0000.0001) %MON dynstat_salt_mean            =   3.4498819874467E+01
(PID.TID 0000.0001) %MON dynstat_salt_sd              =   2.7614648778239E-01
(PID.TID 0000.0001) %MON dynstat_salt_del2            =   2.9547580291793E-06
(PID.TID 0000.0001) %MON advcfl_uvel_max              =   7.4328623114933E-03
(PID.TID 0000.0001) %MON advcfl_vvel_max              =   4.3591169580717E-03
(PID.TID 0000.0001) %MON advcfl_wvel_max              =   1.2341930745235E-02
(PID.TID 0000.0001) %MON advcfl_W_hf_max              =   1.2341930745235E-02
(PID.TID 0000.0001) %MON pe_b_mean                    =  -8.2959510570252E-01
(PID.TID 0000.0001) %MON ke_max                       =   2.5567210515514E-03
(PID.TID 0000.0001) %MON ke_mean                      =   3.1239244606995E-06
(PID.TID 0000.0001) %MON ke_vol                       =   4.2724647869248E+12
(PID.TID 0000.0001) // =======================================================
(PID.TID 0000.0001) // End MONITOR dynamic field statistics
(PID.TID 0000.0001) // =======================================================
(PID.TID 0000.0001) // =======================================================
(PID.TID 0000.0001) // Begin OBCS MONITOR field statistics
(PID.TID 0000.0001) // =======================================================
(PID.TID 0000.0001) %MON obc_N_vVel_max               =   1.5017784940584E-05
(PID.TID 0000.0001) %MON obc_N_vVel_min               =   1.5017784940584E-05
(PID.TID 0000.0001) %MON obc_N_vVel_mean              =   1.5017784940584E-05
(PID.TID 0000.0001) %MON obc_N_vVel_sd                =  -2.8951321439356E-24
(PID.TID 0000.0001) %MON obc_N_vVel_Int               =   9.9117380607857E+02
(PID.TID 0000.0001) // =======================================================
(PID.TID 0000.0001) // End OBCS MONITOR field statistics
(PID.TID 0000.0001) // =======================================================
 cg2d: Sum(rhs),rhsMax =   4.50801850200795E+00  2.99974628845337E+02
(PID.TID 0000.0001)      cg2d_init_res =   1.30765635881258E-05
(PID.TID 0000.0001)      cg2d_iters(min,last) =      -1      85
(PID.TID 0000.0001)      cg2d_last_res =   9.25782883599940E-12
(PID.TID 0000.0001) // =======================================================
(PID.TID 0000.0001) // Begin MONITOR dynamic field statistics
(PID.TID 0000.0001) // =======================================================
(PID.TID 0000.0001) %MON time_tsnumber                =                  1579
(PID.TID 0000.0001) %MON time_secondsf                =   1.5790000000000E+05
(PID.TID 0000.0001) %MON dynstat_eta_max              =   5.8064919361453E+00
(PID.TID 0000.0001) %MON dynstat_eta_min              =  -1.4197128682951E+01
(PID.TID 0000.0001) %MON dynstat_eta_mean             =  -2.5042429203106E+00
(PID.TID 0000.0001) %MON dynstat_eta_sd               =   4.9502463310157E+00
(PID.TID 0000.0001) %MON dynstat_eta_del2             =   2.0717595827647E-01
(PID.TID 0000.0001) %MON dynstat_uvel_max             =   1.7216384278365E-02
(PID.TID 0000.0001) %MON dynstat_uvel_min             =  -7.4447580658509E-02
(PID.TID 0000.0001) %MON dynstat_uvel_mean            =  -1.0236944510258E-07
(PID.TID 0000.0001) %MON dynstat_uvel_sd              =   2.2459103816988E-03
(PID.TID 0000.0001) %MON dynstat_uvel_del2            =   3.5692107188868E-06
(PID.TID 0000.0001) %MON dynstat_vvel_max             =   4.3633556497303E-02
(PID.TID 0000.0001) %MON dynstat_vvel_min             =  -2.7237801555360E-02
(PID.TID 0000.0001) %MON dynstat_vvel_mean            =   1.5345291979648E-05
(PID.TID 0000.0001) %MON dynstat_vvel_sd              =   1.1525417871555E-03
(PID.TID 0000.0001) %MON dynstat_vvel_del2            =   2.3943429142595E-06
(PID.TID 0000.0001) %MON dynstat_wvel_max             =   2.4711556559125E-03
(PID.TID 0000.0001) %MON dynstat_wvel_min             =  -2.4393097906333E-03
(PID.TID 0000.0001) %MON dynstat_wvel_mean            =   7.5777972999263E-09
(PID.TID 0000.0001) %MON dynstat_wvel_sd              =   4.2358443789530E-05
(PID.TID 0000.0001) %MON dynstat_wvel_del2            =   1.6429568835883E-07
(PID.TID 0000.0001) %MON dynstat_theta_max            =   1.2000000000000E+00
(PID.TID 0000.0001) %MON dynstat_theta_min            =  -1.0000000000000E+00
(PID.TID 0000.0001) %MON dynstat_theta_mean           =   5.6801266413601E-01
(PID.TID 0000.0001) %MON dynstat_theta_sd             =   8.6800529971234E-01
(PID.TID 0000.0001) %MON dynstat_theta_del2           =   7.4638083212167E-06
(PID.TID 0000.0001) %MON dynstat_salt_max             =   3.4700000000000E+01
(PID.TID 0000.0001) %MON dynstat_salt_min             =   3.4000000000000E+01
(PID.TID 0000.0001) %MON dynstat_salt_mean            =   3.4498819035307E+01
(PID.TID 0000.0001) %MON dynstat_salt_sd              =   2.7614609132389E-01
(PID.TID 0000.0001) %MON dynstat_salt_del2            =   2.9599185658291E-06
(PID.TID 0000.0001) %MON advcfl_uvel_max              =   7.4447580658509E-03
(PID.TID 0000.0001) %MON advcfl_vvel_max              =   4.3633556497303E-03
(PID.TID 0000.0001) %MON advcfl_wvel_max              =   1.2355778279562E-02
(PID.TID 0000.0001) %MON advcfl_W_hf_max              =   1.2355778279562E-02
(PID.TID 0000.0001) %MON pe_b_mean                    =  -8.2959391281369E-01
(PID.TID 0000.0001) %MON ke_max                       =   2.5669339455441E-03
(PID.TID 0000.0001) %MON ke_mean                      =   3.1363261188166E-06
(PID.TID 0000.0001) %MON ke_vol                       =   4.2724647918960E+12
(PID.TID 0000.0001) // =======================================================
(PID.TID 0000.0001) // End MONITOR dynamic field statistics
(PID.TID 0000.0001) // =======================================================
(PID.TID 0000.0001) // =======================================================
(PID.TID 0000.0001) // Begin OBCS MONITOR field statistics
(PID.TID 0000.0001) // =======================================================
(PID.TID 0000.0001) %MON obc_N_vVel_max               =   1.5015225545301E-05
(PID.TID 0000.0001) %MON obc_N_vVel_min               =   1.5015225545301E-05
(PID.TID 0000.0001) %MON obc_N_vVel_mean              =   1.5015225545301E-05
(PID.TID 0000.0001) %MON obc_N_vVel_sd                =  -7.0051858125585E-24
(PID.TID 0000.0001) %MON obc_N_vVel_Int               =   9.9100488598985E+02
(PID.TID 0000.0001) // =======================================================
(PID.TID 0000.0001) // End OBCS MONITOR field statistics
(PID.TID 0000.0001) // =======================================================
 cg2d: Sum(rhs),rhsMax =   4.50801565540848E+00  2.99974710432131E+02
(PID.TID 0000.0001)      cg2d_init_res =   1.30927958542935E-05
(PID.TID 0000.0001)      cg2d_iters(min,last) =      -1      85
(PID.TID 0000.0001)      cg2d_last_res =   9.26213559295033E-12
(PID.TID 0000.0001) // =======================================================
(PID.TID 0000.0001) // Begin MONITOR dynamic field statistics
(PID.TID 0000.0001) // =======================================================
(PID.TID 0000.0001) %MON time_tsnumber                =                  1580
(PID.TID 0000.0001) %MON time_secondsf                =   1.5800000000000E+05
(PID.TID 0000.0001) %MON dynstat_eta_max              =   5.8065378631825E+00
(PID.TID 0000.0001) %MON dynstat_eta_min              =  -1.4197158578758E+01
(PID.TID 0000.0001) %MON dynstat_eta_mean             =  -2.5042420201012E+00
(PID.TID 0000.0001) %MON dynstat_eta_sd               =   4.9502467616237E+00
(PID.TID 0000.0001) %MON dynstat_eta_del2             =   2.0717602486211E-01
(PID.TID 0000.0001) %MON dynstat_uvel_max             =   1.7251603897559E-02
(PID.TID 0000.0001) %MON dynstat_uvel_min             =  -7.4582711079522E-02
(PID.TID 0000.0001) %MON dynstat_uvel_mean            =  -1.0230529197575E-07
(PID.TID 0000.0001) %MON dynstat_uvel_sd              =   2.2504349027981E-03
(PID.TID 0000.0001) %MON dynstat_uvel_del2            =   3.5776779365317E-06
(PID.TID 0000.0001) %MON dynstat_vvel_max             =   4.3675884101963E-02
(PID.TID 0000.0001) %MON dynstat_vvel_min             =  -2.7295635940702E-02
(PID.TID 0000.0001) %MON dynstat_vvel_mean            =   1.5341389659850E-05
(PID.TID 0000.0001) %MON dynstat_vvel_sd              =   1.1546858351695E-03
(PID.TID 0000.0001) %MON dynstat_vvel_del2            =   2.3988594387548E-06
(PID.TID 0000.0001) %MON dynstat_wvel_max             =   2.4739213057580E-03
(PID.TID 0000.0001) %MON dynstat_wvel_min             =  -2.4422101869003E-03
(PID.TID 0000.0001) %MON dynstat_wvel_mean            =   7.5694836515365E-09
(PID.TID 0000.0001) %MON dynstat_wvel_sd              =   4.2441747958368E-05
(PID.TID 0000.0001) %MON dynstat_wvel_del2            =   1.6458051966217E-07
(PID.TID 0000.0001) %MON dynstat_theta_max            =   1.2000000000000E+00
(PID.TID 0000.0001) %MON dynstat_theta_min            =  -1.0000000000000E+00
(PID.TID 0000.0001) %MON dynstat_theta_mean           =   5.6801056442993E-01
(PID.TID 0000.0001) %MON dynstat_theta_sd             =   8.6800425032827E-01
(PID.TID 0000.0001) %MON dynstat_theta_del2           =   7.4767995173739E-06
(PID.TID 0000.0001) %MON dynstat_salt_max             =   3.4700000000000E+01
(PID.TID 0000.0001) %MON dynstat_salt_min             =   3.4000000000000E+01
(PID.TID 0000.0001) %MON dynstat_salt_mean            =   3.4498818194773E+01
(PID.TID 0000.0001) %MON dynstat_salt_sd              =   2.7614569437832E-01
(PID.TID 0000.0001) %MON dynstat_salt_del2            =   2.9650846932275E-06
(PID.TID 0000.0001) %MON advcfl_uvel_max              =   7.4582711079522E-03
(PID.TID 0000.0001) %MON advcfl_vvel_max              =   4.3675884101963E-03
(PID.TID 0000.0001) %MON advcfl_wvel_max              =   1.2369606528790E-02
(PID.TID 0000.0001) %MON advcfl_W_hf_max              =   1.2369606528790E-02
(PID.TID 0000.0001) %MON pe_b_mean                    =  -8.2959270896332E-01
(PID.TID 0000.0001) %MON ke_max                       =   2.5771731943063E-03
(PID.TID 0000.0001) %MON ke_mean                      =   3.1487696315894E-06
(PID.TID 0000.0001) %MON ke_vol                       =   4.2724647970534E+12
(PID.TID 0000.0001) // =======================================================
(PID.TID 0000.0001) // End MONITOR dynamic field statistics
(PID.TID 0000.0001) // =======================================================
(PID.TID 0000.0001) // =======================================================
(PID.TID 0000.0001) // Begin OBCS MONITOR field statistics
(PID.TID 0000.0001) // =======================================================
(PID.TID 0000.0001) %MON obc_N_vVel_max               =   1.5012108098378E-05
(PID.TID 0000.0001) %MON obc_N_vVel_min               =   1.5012108098377E-05
(PID.TID 0000.0001) %MON obc_N_vVel_mean              =   1.5012108098378E-05
(PID.TID 0000.0001) %MON obc_N_vVel_sd                =  -5.6351679230175E-24
(PID.TID 0000.0001) %MON obc_N_vVel_Int               =   9.9079913449294E+02
(PID.TID 0000.0001) // =======================================================
(PID.TID 0000.0001) // End OBCS MONITOR field statistics
(PID.TID 0000.0001) // =======================================================
 cg2d: Sum(rhs),rhsMax =   4.50801275059728E+00  2.99974791996619E+02
(PID.TID 0000.0001)      cg2d_init_res =   1.31091688244906E-05
(PID.TID 0000.0001)      cg2d_iters(min,last) =      -1      85
(PID.TID 0000.0001)      cg2d_last_res =   9.26704222607549E-12
(PID.TID 0000.0001) // =======================================================
(PID.TID 0000.0001) // Begin MONITOR dynamic field statistics
(PID.TID 0000.0001) // =======================================================
(PID.TID 0000.0001) %MON time_tsnumber                =                  1581
(PID.TID 0000.0001) %MON time_secondsf                =   1.5810000000000E+05
(PID.TID 0000.0001) %MON dynstat_eta_max              =   5.8065839217918E+00
(PID.TID 0000.0001) %MON dynstat_eta_min              =  -1.4197188467914E+01
(PID.TID 0000.0001) %MON dynstat_eta_mean             =  -2.5042410873676E+00
(PID.TID 0000.0001) %MON dynstat_eta_sd               =   4.9502471821255E+00
(PID.TID 0000.0001) %MON dynstat_eta_del2             =   2.0717609153215E-01
(PID.TID 0000.0001) %MON dynstat_uvel_max             =   1.7286872794376E-02
(PID.TID 0000.0001) %MON dynstat_uvel_min             =  -7.4746774882140E-02
(PID.TID 0000.0001) %MON dynstat_uvel_mean            =  -1.0224636305718E-07
(PID.TID 0000.0001) %MON dynstat_uvel_sd              =   2.2549653728958E-03
(PID.TID 0000.0001) %MON dynstat_uvel_del2            =   3.5861626985479E-06
(PID.TID 0000.0001) %MON dynstat_vvel_max             =   4.3718152237101E-02
(PID.TID 0000.0001) %MON dynstat_vvel_min             =  -2.7353520765930E-02
(PID.TID 0000.0001) %MON dynstat_vvel_mean            =   1.5337016181899E-05
(PID.TID 0000.0001) %MON dynstat_vvel_sd              =   1.1568333499929E-03
(PID.TID 0000.0001) %MON dynstat_vvel_del2            =   2.4033837444567E-06
(PID.TID 0000.0001) %MON dynstat_wvel_max             =   2.4766830913613E-03
(PID.TID 0000.0001) %MON dynstat_wvel_min             =  -2.4451005655112E-03
(PID.TID 0000.0001) %MON dynstat_wvel_mean            =   7.5613890258415E-09
(PID.TID 0000.0001) %MON dynstat_wvel_sd              =   4.2525853715505E-05
(PID.TID 0000.0001) %MON dynstat_wvel_del2            =   1.6486843600174E-07
(PID.TID 0000.0001) %MON dynstat_theta_max            =   1.2000000000000E+00
(PID.TID 0000.0001) %MON dynstat_theta_min            =  -1.0000000000000E+00
(PID.TID 0000.0001) %MON dynstat_theta_mean           =   5.6800846128510E-01
(PID.TID 0000.0001) %MON dynstat_theta_sd             =   8.6800319956576E-01
(PID.TID 0000.0001) %MON dynstat_theta_del2           =   7.4898041339417E-06
(PID.TID 0000.0001) %MON dynstat_salt_max             =   3.4700000000000E+01
(PID.TID 0000.0001) %MON dynstat_salt_min             =   3.4000000000000E+01
(PID.TID 0000.0001) %MON dynstat_salt_mean            =   3.4498817352865E+01
(PID.TID 0000.0001) %MON dynstat_salt_sd              =   2.7614529694596E-01
(PID.TID 0000.0001) %MON dynstat_salt_del2            =   2.9702560362964E-06
(PID.TID 0000.0001) %MON advcfl_uvel_max              =   7.4746774882140E-03
(PID.TID 0000.0001) %MON advcfl_vvel_max              =   4.3718152237101E-03
(PID.TID 0000.0001) %MON advcfl_wvel_max              =   1.2383415456807E-02
(PID.TID 0000.0001) %MON advcfl_W_hf_max              =   1.2383415456807E-02
(PID.TID 0000.0001) %MON pe_b_mean                    =  -8.2959149403154E-01
(PID.TID 0000.0001) %MON ke_max                       =   2.5874387864333E-03
(PID.TID 0000.0001) %MON ke_mean                      =   3.1612549586466E-06
(PID.TID 0000.0001) %MON ke_vol                       =   4.2724648024006E+12
(PID.TID 0000.0001) // =======================================================
(PID.TID 0000.0001) // End MONITOR dynamic field statistics
(PID.TID 0000.0001) // =======================================================
(PID.TID 0000.0001) // =======================================================
(PID.TID 0000.0001) // Begin OBCS MONITOR field statistics
(PID.TID 0000.0001) // =======================================================
(PID.TID 0000.0001) %MON obc_N_vVel_max               =   1.5008519812832E-05
(PID.TID 0000.0001) %MON obc_N_vVel_min               =   1.5008519812831E-05
(PID.TID 0000.0001) %MON obc_N_vVel_mean              =   1.5008519812832E-05
(PID.TID 0000.0001) %MON obc_N_vVel_sd                =  -1.2898847676999E-23
(PID.TID 0000.0001) %MON obc_N_vVel_Int               =   9.9056230764690E+02
(PID.TID 0000.0001) // =======================================================
(PID.TID 0000.0001) // End OBCS MONITOR field statistics
(PID.TID 0000.0001) // =======================================================
 cg2d: Sum(rhs),rhsMax =   4.50800978671123E+00  2.99974873543425E+02
(PID.TID 0000.0001)      cg2d_init_res =   1.31257011135319E-05
(PID.TID 0000.0001)      cg2d_iters(min,last) =      -1      85
(PID.TID 0000.0001)      cg2d_last_res =   9.27261367355006E-12
(PID.TID 0000.0001) // =======================================================
(PID.TID 0000.0001) // Begin MONITOR dynamic field statistics
(PID.TID 0000.0001) // =======================================================
(PID.TID 0000.0001) %MON time_tsnumber                =                  1582
(PID.TID 0000.0001) %MON time_secondsf                =   1.5820000000000E+05
(PID.TID 0000.0001) %MON dynstat_eta_max              =   5.8066301127198E+00
(PID.TID 0000.0001) %MON dynstat_eta_min              =  -1.4197218350148E+01
(PID.TID 0000.0001) %MON dynstat_eta_mean             =  -2.5042401216689E+00
(PID.TID 0000.0001) %MON dynstat_eta_sd               =   4.9502475924714E+00
(PID.TID 0000.0001) %MON dynstat_eta_del2             =   2.0717615828665E-01
(PID.TID 0000.0001) %MON dynstat_uvel_max             =   1.7322190999534E-02
(PID.TID 0000.0001) %MON dynstat_uvel_min             =  -7.4910992185290E-02
(PID.TID 0000.0001) %MON dynstat_uvel_mean            =  -1.0219313415509E-07
(PID.TID 0000.0001) %MON dynstat_uvel_sd              =   2.2595017860454E-03
(PID.TID 0000.0001) %MON dynstat_uvel_del2            =   3.5946650183871E-06
(PID.TID 0000.0001) %MON dynstat_vvel_max             =   4.3760360747670E-02
(PID.TID 0000.0001) %MON dynstat_vvel_min             =  -2.7411455396141E-02
(PID.TID 0000.0001) %MON dynstat_vvel_mean            =   1.5332290266772E-05
(PID.TID 0000.0001) %MON dynstat_vvel_sd              =   1.1589842119133E-03
(PID.TID 0000.0001) %MON dynstat_vvel_del2            =   2.4079153357340E-06
(PID.TID 0000.0001) %MON dynstat_wvel_max             =   2.4794410054782E-03
(PID.TID 0000.0001) %MON dynstat_wvel_min             =  -2.4479807495201E-03
(PID.TID 0000.0001) %MON dynstat_wvel_mean            =   7.5537342967173E-09
(PID.TID 0000.0001) %MON dynstat_wvel_sd              =   4.2610205782573E-05
(PID.TID 0000.0001) %MON dynstat_wvel_del2            =   1.6515763477350E-07
(PID.TID 0000.0001) %MON dynstat_theta_max            =   1.2000000000000E+00
(PID.TID 0000.0001) %MON dynstat_theta_min            =  -1.0000000000000E+00
(PID.TID 0000.0001) %MON dynstat_theta_mean           =   5.6800635469606E-01
(PID.TID 0000.0001) %MON dynstat_theta_sd             =   8.6800214742822E-01
(PID.TID 0000.0001) %MON dynstat_theta_del2           =   7.5028236639080E-06
(PID.TID 0000.0001) %MON dynstat_salt_max             =   3.4700000000000E+01
(PID.TID 0000.0001) %MON dynstat_salt_min             =   3.4000000000000E+01
(PID.TID 0000.0001) %MON dynstat_salt_mean            =   3.4498816509581E+01
(PID.TID 0000.0001) %MON dynstat_salt_sd              =   2.7614489902831E-01
(PID.TID 0000.0001) %MON dynstat_salt_del2            =   2.9754332742324E-06
(PID.TID 0000.0001) %MON advcfl_uvel_max              =   7.4910992185290E-03
(PID.TID 0000.0001) %MON advcfl_vvel_max              =   4.3760360747670E-03
(PID.TID 0000.0001) %MON advcfl_wvel_max              =   1.2397205027391E-02
(PID.TID 0000.0001) %MON advcfl_W_hf_max              =   1.2397205027391E-02
(PID.TID 0000.0001) %MON pe_b_mean                    =  -8.2959026792902E-01
(PID.TID 0000.0001) %MON ke_max                       =   2.5977307104192E-03
(PID.TID 0000.0001) %MON ke_mean                      =   3.1737820514873E-06
(PID.TID 0000.0001) %MON ke_vol                       =   4.2724648079410E+12
(PID.TID 0000.0001) // =======================================================
(PID.TID 0000.0001) // End MONITOR dynamic field statistics
(PID.TID 0000.0001) // =======================================================
(PID.TID 0000.0001) // =======================================================
(PID.TID 0000.0001) // Begin OBCS MONITOR field statistics
(PID.TID 0000.0001) // =======================================================
(PID.TID 0000.0001) %MON obc_N_vVel_max               =   1.5004557575841E-05
(PID.TID 0000.0001) %MON obc_N_vVel_min               =   1.5004557575841E-05
(PID.TID 0000.0001) %MON obc_N_vVel_mean              =   1.5004557575841E-05
(PID.TID 0000.0001) %MON obc_N_vVel_sd                =   2.3955303169834E-12
(PID.TID 0000.0001) %MON obc_N_vVel_Int               =   9.9030080000552E+02
(PID.TID 0000.0001) // =======================================================
(PID.TID 0000.0001) // End OBCS MONITOR field statistics
(PID.TID 0000.0001) // =======================================================
 cg2d: Sum(rhs),rhsMax =   4.50800676307603E+00  2.99974955078487E+02
(PID.TID 0000.0001)      cg2d_init_res =   1.31424201850395E-05
(PID.TID 0000.0001)      cg2d_iters(min,last) =      -1      85
(PID.TID 0000.0001)      cg2d_last_res =   9.27888130703065E-12
(PID.TID 0000.0001) // =======================================================
(PID.TID 0000.0001) // Begin MONITOR dynamic field statistics
(PID.TID 0000.0001) // =======================================================
(PID.TID 0000.0001) %MON time_tsnumber                =                  1583
(PID.TID 0000.0001) %MON time_secondsf                =   1.5830000000000E+05
(PID.TID 0000.0001) %MON dynstat_eta_max              =   5.8066764364663E+00
(PID.TID 0000.0001) %MON dynstat_eta_min              =  -1.4197248225304E+01
(PID.TID 0000.0001) %MON dynstat_eta_mean             =  -2.5042391226801E+00
(PID.TID 0000.0001) %MON dynstat_eta_sd               =   4.9502479926569E+00
(PID.TID 0000.0001) %MON dynstat_eta_del2             =   2.0717622512590E-01
(PID.TID 0000.0001) %MON dynstat_uvel_max             =   1.7357558477356E-02
(PID.TID 0000.0001) %MON dynstat_uvel_min             =  -7.5075362477238E-02
(PID.TID 0000.0001) %MON dynstat_uvel_mean            =  -1.0214595513141E-07
(PID.TID 0000.0001) %MON dynstat_uvel_sd              =   2.2640441360338E-03
(PID.TID 0000.0001) %MON dynstat_uvel_del2            =   3.6031849070805E-06
(PID.TID 0000.0001) %MON dynstat_vvel_max             =   4.3802509480670E-02
(PID.TID 0000.0001) %MON dynstat_vvel_min             =  -2.7469439187650E-02
(PID.TID 0000.0001) %MON dynstat_vvel_mean            =   1.5327337283966E-05
(PID.TID 0000.0001) %MON dynstat_vvel_sd              =   1.1611383008513E-03
(PID.TID 0000.0001) %MON dynstat_vvel_del2            =   2.4124537367194E-06
(PID.TID 0000.0001) %MON dynstat_wvel_max             =   2.4821950408614E-03
(PID.TID 0000.0001) %MON dynstat_wvel_min             =  -2.4508505613880E-03
(PID.TID 0000.0001) %MON dynstat_wvel_mean            =   7.5467271829690E-09
(PID.TID 0000.0001) %MON dynstat_wvel_sd              =   4.2694258365364E-05
(PID.TID 0000.0001) %MON dynstat_wvel_del2            =   1.6544632638876E-07
(PID.TID 0000.0001) %MON dynstat_theta_max            =   1.2000000000000E+00
(PID.TID 0000.0001) %MON dynstat_theta_min            =  -1.0000000000000E+00
(PID.TID 0000.0001) %MON dynstat_theta_mean           =   5.6800424465750E-01
(PID.TID 0000.0001) %MON dynstat_theta_sd             =   8.6800109391862E-01
(PID.TID 0000.0001) %MON dynstat_theta_del2           =   7.5158585643251E-06
(PID.TID 0000.0001) %MON dynstat_salt_max             =   3.4700000000000E+01
(PID.TID 0000.0001) %MON dynstat_salt_min             =   3.4000000000000E+01
(PID.TID 0000.0001) %MON dynstat_salt_mean            =   3.4498815664918E+01
(PID.TID 0000.0001) %MON dynstat_salt_sd              =   2.7614450062634E-01
(PID.TID 0000.0001) %MON dynstat_salt_del2            =   2.9806165885343E-06
(PID.TID 0000.0001) %MON advcfl_uvel_max              =   7.5075362477238E-03
(PID.TID 0000.0001) %MON advcfl_vvel_max              =   4.3802509480670E-03
(PID.TID 0000.0001) %MON advcfl_wvel_max              =   1.2410975204307E-02
(PID.TID 0000.0001) %MON advcfl_W_hf_max              =   1.2410975204307E-02
(PID.TID 0000.0001) %MON pe_b_mean                    =  -8.2958903059845E-01
(PID.TID 0000.0001) %MON ke_max                       =   2.6080489546359E-03
(PID.TID 0000.0001) %MON ke_mean                      =   3.1863508596945E-06
(PID.TID 0000.0001) %MON ke_vol                       =   4.2724648136773E+12
(PID.TID 0000.0001) // =======================================================
(PID.TID 0000.0001) // End MONITOR dynamic field statistics
(PID.TID 0000.0001) // =======================================================
(PID.TID 0000.0001) // =======================================================
(PID.TID 0000.0001) // Begin OBCS MONITOR field statistics
(PID.TID 0000.0001) // =======================================================
(PID.TID 0000.0001) %MON obc_N_vVel_max               =   1.5000325649234E-05
(PID.TID 0000.0001) %MON obc_N_vVel_min               =   1.5000325649233E-05
(PID.TID 0000.0001) %MON obc_N_vVel_mean              =   1.5000325649234E-05
(PID.TID 0000.0001) %MON obc_N_vVel_sd                =  -5.9970594410095E-24
(PID.TID 0000.0001) %MON obc_N_vVel_Int               =   9.9002149284943E+02
(PID.TID 0000.0001) // =======================================================
(PID.TID 0000.0001) // End OBCS MONITOR field statistics
(PID.TID 0000.0001) // =======================================================
 cg2d: Sum(rhs),rhsMax =   4.50800367921867E+00  2.99975036608863E+02
(PID.TID 0000.0001)      cg2d_init_res =   1.31593284868727E-05
(PID.TID 0000.0001)      cg2d_iters(min,last) =      -1      85
(PID.TID 0000.0001)      cg2d_last_res =   9.28587511515409E-12
(PID.TID 0000.0001) // =======================================================
(PID.TID 0000.0001) // Begin MONITOR dynamic field statistics
(PID.TID 0000.0001) // =======================================================
(PID.TID 0000.0001) %MON time_tsnumber                =                  1584
(PID.TID 0000.0001) %MON time_secondsf                =   1.5840000000000E+05
(PID.TID 0000.0001) %MON dynstat_eta_max              =   5.8067228932674E+00
(PID.TID 0000.0001) %MON dynstat_eta_min              =  -1.4197278093358E+01
(PID.TID 0000.0001) %MON dynstat_eta_mean             =  -2.5042380901972E+00
(PID.TID 0000.0001) %MON dynstat_eta_sd               =   4.9502483827202E+00
(PID.TID 0000.0001) %MON dynstat_eta_del2             =   2.0717629205019E-01
(PID.TID 0000.0001) %MON dynstat_uvel_max             =   1.7392975473808E-02
(PID.TID 0000.0001) %MON dynstat_uvel_min             =  -7.5239885242192E-02
(PID.TID 0000.0001) %MON dynstat_uvel_mean            =  -1.0210503800132E-07
(PID.TID 0000.0001) %MON dynstat_uvel_sd              =   2.2685924164603E-03
(PID.TID 0000.0001) %MON dynstat_uvel_del2            =   3.6117223752230E-06
(PID.TID 0000.0001) %MON dynstat_vvel_max             =   4.3844598284434E-02
(PID.TID 0000.0001) %MON dynstat_vvel_min             =  -2.7527471489945E-02
(PID.TID 0000.0001) %MON dynstat_vvel_mean            =   1.5322286382451E-05
(PID.TID 0000.0001) %MON dynstat_vvel_sd              =   1.1632955020651E-03
(PID.TID 0000.0001) %MON dynstat_vvel_del2            =   2.4169985115149E-06
(PID.TID 0000.0001) %MON dynstat_wvel_max             =   2.4849451902448E-03
(PID.TID 0000.0001) %MON dynstat_wvel_min             =  -2.4537098229698E-03
(PID.TID 0000.0001) %MON dynstat_wvel_mean            =   7.5405585467918E-09
(PID.TID 0000.0001) %MON dynstat_wvel_sd              =   4.2777499496091E-05
(PID.TID 0000.0001) %MON dynstat_wvel_del2            =   1.6573282057491E-07
(PID.TID 0000.0001) %MON dynstat_theta_max            =   1.2000000000000E+00
(PID.TID 0000.0001) %MON dynstat_theta_min            =  -1.0000000000000E+00
(PID.TID 0000.0001) %MON dynstat_theta_mean           =   5.6800213116428E-01
(PID.TID 0000.0001) %MON dynstat_theta_sd             =   8.6800003904077E-01
(PID.TID 0000.0001) %MON dynstat_theta_del2           =   7.5289094358705E-06
(PID.TID 0000.0001) %MON dynstat_salt_max             =   3.4700000000000E+01
(PID.TID 0000.0001) %MON dynstat_salt_min             =   3.4000000000000E+01
(PID.TID 0000.0001) %MON dynstat_salt_mean            =   3.4498814818875E+01
(PID.TID 0000.0001) %MON dynstat_salt_sd              =   2.7614410174154E-01
(PID.TID 0000.0001) %MON dynstat_salt_del2            =   2.9858061076544E-06
(PID.TID 0000.0001) %MON advcfl_uvel_max              =   7.5239885242192E-03
(PID.TID 0000.0001) %MON advcfl_vvel_max              =   4.3844598284434E-03
(PID.TID 0000.0001) %MON advcfl_wvel_max              =   1.2424725951224E-02
(PID.TID 0000.0001) %MON advcfl_W_hf_max              =   1.2424725951224E-02
(PID.TID 0000.0001) %MON pe_b_mean                    =  -8.2958778201523E-01
(PID.TID 0000.0001) %MON ke_max                       =   2.6183935073225E-03
(PID.TID 0000.0001) %MON ke_mean                      =   3.1989613376893E-06
(PID.TID 0000.0001) %MON ke_vol                       =   4.2724648196113E+12
(PID.TID 0000.0001) // =======================================================
(PID.TID 0000.0001) // End MONITOR dynamic field statistics
(PID.TID 0000.0001) // =======================================================
(PID.TID 0000.0001) // =======================================================
(PID.TID 0000.0001) // Begin OBCS MONITOR field statistics
(PID.TID 0000.0001) // =======================================================
(PID.TID 0000.0001) %MON obc_N_vVel_max               =   1.4995933263171E-05
(PID.TID 0000.0001) %MON obc_N_vVel_min               =   1.4995933263171E-05
(PID.TID 0000.0001) %MON obc_N_vVel_mean              =   1.4995933263171E-05
(PID.TID 0000.0001) %MON obc_N_vVel_sd                =  -2.2488972903785E-24
(PID.TID 0000.0001) %MON obc_N_vVel_Int               =   9.8973159536927E+02
(PID.TID 0000.0001) // =======================================================
(PID.TID 0000.0001) // End OBCS MONITOR field statistics
(PID.TID 0000.0001) // =======================================================
 cg2d: Sum(rhs),rhsMax =   4.50800053487408E+00  2.99975118142603E+02
(PID.TID 0000.0001)      cg2d_init_res =   1.31764290217746E-05
(PID.TID 0000.0001)      cg2d_iters(min,last) =      -1      85
(PID.TID 0000.0001)      cg2d_last_res =   9.29360374188905E-12
(PID.TID 0000.0001) // =======================================================
(PID.TID 0000.0001) // Begin MONITOR dynamic field statistics
(PID.TID 0000.0001) // =======================================================
(PID.TID 0000.0001) %MON time_tsnumber                =                  1585
(PID.TID 0000.0001) %MON time_secondsf                =   1.5850000000000E+05
(PID.TID 0000.0001) %MON dynstat_eta_max              =   5.8067694831122E+00
(PID.TID 0000.0001) %MON dynstat_eta_min              =  -1.4197307954418E+01
(PID.TID 0000.0001) %MON dynstat_eta_mean             =  -2.5042370241403E+00
(PID.TID 0000.0001) %MON dynstat_eta_sd               =   4.9502487627394E+00
(PID.TID 0000.0001) %MON dynstat_eta_del2             =   2.0717635905973E-01
(PID.TID 0000.0001) %MON dynstat_uvel_max             =   1.7428441922794E-02
(PID.TID 0000.0001) %MON dynstat_uvel_min             =  -7.5404559959635E-02
(PID.TID 0000.0001) %MON dynstat_uvel_mean            =  -1.0207046087230E-07
(PID.TID 0000.0001) %MON dynstat_uvel_sd              =   2.2731466207272E-03
(PID.TID 0000.0001) %MON dynstat_uvel_del2            =   3.6202774327725E-06
(PID.TID 0000.0001) %MON dynstat_vvel_max             =   4.3886627008100E-02
(PID.TID 0000.0001) %MON dynstat_vvel_min             =  -2.7585551645197E-02
(PID.TID 0000.0001) %MON dynstat_vvel_mean            =   1.5317267526548E-05
(PID.TID 0000.0001) %MON dynstat_vvel_sd              =   1.1654557114261E-03
(PID.TID 0000.0001) %MON dynstat_vvel_del2            =   2.4215492838208E-06
(PID.TID 0000.0001) %MON dynstat_wvel_max             =   2.4876914463637E-03
(PID.TID 0000.0001) %MON dynstat_wvel_min             =  -2.4565583554480E-03
(PID.TID 0000.0001) %MON dynstat_wvel_mean            =   7.5353987974710E-09
(PID.TID 0000.0001) %MON dynstat_wvel_sd              =   4.2859473010755E-05
(PID.TID 0000.0001) %MON dynstat_wvel_del2            =   1.6601560299498E-07
(PID.TID 0000.0001) %MON dynstat_theta_max            =   1.2000000000000E+00
(PID.TID 0000.0001) %MON dynstat_theta_min            =  -1.0000000000000E+00
(PID.TID 0000.0001) %MON dynstat_theta_mean           =   5.6800001421140E-01
(PID.TID 0000.0001) %MON dynstat_theta_sd             =   8.6799898279932E-01
(PID.TID 0000.0001) %MON dynstat_theta_del2           =   7.5419768268722E-06
(PID.TID 0000.0001) %MON dynstat_salt_max             =   3.4700000000000E+01
(PID.TID 0000.0001) %MON dynstat_salt_min             =   3.4000000000000E+01
(PID.TID 0000.0001) %MON dynstat_salt_mean            =   3.4498813971450E+01
(PID.TID 0000.0001) %MON dynstat_salt_sd              =   2.7614370237575E-01
(PID.TID 0000.0001) %MON dynstat_salt_del2            =   2.9910019574315E-06
(PID.TID 0000.0001) %MON advcfl_uvel_max              =   7.5404559959635E-03
(PID.TID 0000.0001) %MON advcfl_vvel_max              =   4.3886627008100E-03
(PID.TID 0000.0001) %MON advcfl_wvel_max              =   1.2438457231819E-02
(PID.TID 0000.0001) %MON advcfl_W_hf_max              =   1.2438457231819E-02
(PID.TID 0000.0001) %MON pe_b_mean                    =  -8.2958652218748E-01
(PID.TID 0000.0001) %MON ke_max                       =   2.6287643565539E-03
(PID.TID 0000.0001) %MON ke_mean                      =   3.2116134508592E-06
(PID.TID 0000.0001) %MON ke_vol                       =   4.2724648257442E+12
(PID.TID 0000.0001) // =======================================================
(PID.TID 0000.0001) // End MONITOR dynamic field statistics
(PID.TID 0000.0001) // =======================================================
(PID.TID 0000.0001) // =======================================================
(PID.TID 0000.0001) // Begin OBCS MONITOR field statistics
(PID.TID 0000.0001) // =======================================================
(PID.TID 0000.0001) %MON obc_N_vVel_max               =   1.4991492065025E-05
(PID.TID 0000.0001) %MON obc_N_vVel_min               =   1.4991492065025E-05
(PID.TID 0000.0001) %MON obc_N_vVel_mean              =   1.4991492065025E-05
(PID.TID 0000.0001) %MON obc_N_vVel_sd                =   2.7707887072561E-12
(PID.TID 0000.0001) %MON obc_N_vVel_Int               =   9.8943847629163E+02
(PID.TID 0000.0001) // =======================================================
(PID.TID 0000.0001) // End OBCS MONITOR field statistics
(PID.TID 0000.0001) // =======================================================
 cg2d: Sum(rhs),rhsMax =   4.50799732998991E+00  2.99975199688488E+02
(PID.TID 0000.0001)      cg2d_init_res =   1.31937243676371E-05
(PID.TID 0000.0001)      cg2d_iters(min,last) =      -1      85
(PID.TID 0000.0001)      cg2d_last_res =   9.30207758285371E-12
(PID.TID 0000.0001) // =======================================================
(PID.TID 0000.0001) // Begin MONITOR dynamic field statistics
(PID.TID 0000.0001) // =======================================================
(PID.TID 0000.0001) %MON time_tsnumber                =                  1586
(PID.TID 0000.0001) %MON time_secondsf                =   1.5860000000000E+05
(PID.TID 0000.0001) %MON dynstat_eta_max              =   5.8068162057298E+00
(PID.TID 0000.0001) %MON dynstat_eta_min              =  -1.4197337808711E+01
(PID.TID 0000.0001) %MON dynstat_eta_mean             =  -2.5042359245535E+00
(PID.TID 0000.0001) %MON dynstat_eta_sd               =   4.9502491328304E+00
(PID.TID 0000.0001) %MON dynstat_eta_del2             =   2.0717642615477E-01
(PID.TID 0000.0001) %MON dynstat_uvel_max             =   1.7463957865397E-02
(PID.TID 0000.0001) %MON dynstat_uvel_min             =  -7.5569386104243E-02
(PID.TID 0000.0001) %MON dynstat_uvel_mean            =  -1.0204216018606E-07
(PID.TID 0000.0001) %MON dynstat_uvel_sd              =   2.2777067420672E-03
(PID.TID 0000.0001) %MON dynstat_uvel_del2            =   3.6288500892359E-06
(PID.TID 0000.0001) %MON dynstat_vvel_max             =   4.3928595500885E-02
(PID.TID 0000.0001) %MON dynstat_vvel_min             =  -2.7643678987673E-02
(PID.TID 0000.0001) %MON dynstat_vvel_mean            =   1.5312408534572E-05
(PID.TID 0000.0001) %MON dynstat_vvel_sd              =   1.1676188400159E-03
(PID.TID 0000.0001) %MON dynstat_vvel_del2            =   2.4261057529778E-06
(PID.TID 0000.0001) %MON dynstat_wvel_max             =   2.4904338019628E-03
(PID.TID 0000.0001) %MON dynstat_wvel_min             =  -2.4593959792706E-03
(PID.TID 0000.0001) %MON dynstat_wvel_mean            =   7.5313935194712E-09
(PID.TID 0000.0001) %MON dynstat_wvel_sd              =   4.2939797192946E-05
(PID.TID 0000.0001) %MON dynstat_wvel_del2            =   1.6629339849280E-07
(PID.TID 0000.0001) %MON dynstat_theta_max            =   1.2000000000000E+00
(PID.TID 0000.0001) %MON dynstat_theta_min            =  -1.0000000000000E+00
(PID.TID 0000.0001) %MON dynstat_theta_mean           =   5.6799789379414E-01
(PID.TID 0000.0001) %MON dynstat_theta_sd             =   8.6799792519562E-01
(PID.TID 0000.0001) %MON dynstat_theta_del2           =   7.5550540214560E-06
(PID.TID 0000.0001) %MON dynstat_salt_max             =   3.4700000000000E+01
(PID.TID 0000.0001) %MON dynstat_salt_min             =   3.4000000000000E+01
(PID.TID 0000.0001) %MON dynstat_salt_mean            =   3.4498813122640E+01
(PID.TID 0000.0001) %MON dynstat_salt_sd              =   2.7614330252845E-01
(PID.TID 0000.0001) %MON dynstat_salt_del2            =   2.9962005843826E-06
(PID.TID 0000.0001) %MON advcfl_uvel_max              =   7.5569386104243E-03
(PID.TID 0000.0001) %MON advcfl_vvel_max              =   4.3928595500885E-03
(PID.TID 0000.0001) %MON advcfl_wvel_max              =   1.2452169009814E-02
(PID.TID 0000.0001) %MON advcfl_W_hf_max              =   1.2452169009814E-02
(PID.TID 0000.0001) %MON pe_b_mean                    =  -8.2958525115540E-01
(PID.TID 0000.0001) %MON ke_max                       =   2.6391614902476E-03
(PID.TID 0000.0001) %MON ke_mean                      =   3.2243071810500E-06
(PID.TID 0000.0001) %MON ke_vol                       =   4.2724648320766E+12
(PID.TID 0000.0001) // =======================================================
(PID.TID 0000.0001) // End MONITOR dynamic field statistics
(PID.TID 0000.0001) // =======================================================
(PID.TID 0000.0001) // =======================================================
(PID.TID 0000.0001) // Begin OBCS MONITOR field statistics
(PID.TID 0000.0001) // =======================================================
(PID.TID 0000.0001) %MON obc_N_vVel_max               =   1.4987113566391E-05
(PID.TID 0000.0001) %MON obc_N_vVel_min               =   1.4987113566391E-05
(PID.TID 0000.0001) %MON obc_N_vVel_mean              =   1.4987113566391E-05
(PID.TID 0000.0001) %MON obc_N_vVel_sd                =  -1.0779197357332E-23
(PID.TID 0000.0001) %MON obc_N_vVel_Int               =   9.8914949538180E+02
(PID.TID 0000.0001) // =======================================================
(PID.TID 0000.0001) // End OBCS MONITOR field statistics
(PID.TID 0000.0001) // =======================================================
 cg2d: Sum(rhs),rhsMax =   4.50799406472293E+00  2.99975281255869E+02
(PID.TID 0000.0001)      cg2d_init_res =   1.32104217971161E-05
(PID.TID 0000.0001)      cg2d_iters(min,last) =      -1      85
(PID.TID 0000.0001)      cg2d_last_res =   9.31084599746385E-12
(PID.TID 0000.0001) // =======================================================
(PID.TID 0000.0001) // Begin MONITOR dynamic field statistics
(PID.TID 0000.0001) // =======================================================
(PID.TID 0000.0001) %MON time_tsnumber                =                  1587
(PID.TID 0000.0001) %MON time_secondsf                =   1.5870000000000E+05
(PID.TID 0000.0001) %MON dynstat_eta_max              =   5.8068630606170E+00
(PID.TID 0000.0001) %MON dynstat_eta_min              =  -1.4197367656569E+01
(PID.TID 0000.0001) %MON dynstat_eta_mean             =  -2.5042347916019E+00
(PID.TID 0000.0001) %MON dynstat_eta_sd               =   4.9502494931224E+00
(PID.TID 0000.0001) %MON dynstat_eta_del2             =   2.0717649333443E-01
(PID.TID 0000.0001) %MON dynstat_uvel_max             =   1.7499523316070E-02
(PID.TID 0000.0001) %MON dynstat_uvel_min             =  -7.5734363130639E-02
(PID.TID 0000.0001) %MON dynstat_uvel_mean            =  -1.0202006940519E-07
(PID.TID 0000.0001) %MON dynstat_uvel_sd              =   2.2822727744144E-03
(PID.TID 0000.0001) %MON dynstat_uvel_del2            =   3.6374402824819E-06
(PID.TID 0000.0001) %MON dynstat_vvel_max             =   4.3970503611471E-02
(PID.TID 0000.0001) %MON dynstat_vvel_min             =  -2.7701852846278E-02
(PID.TID 0000.0001) %MON dynstat_vvel_mean            =   1.5307832306869E-05
(PID.TID 0000.0001) %MON dynstat_vvel_sd              =   1.1697848188445E-03
(PID.TID 0000.0001) %MON dynstat_vvel_del2            =   2.4306677485941E-06
(PID.TID 0000.0001) %MON dynstat_wvel_max             =   2.4931722497839E-03
(PID.TID 0000.0001) %MON dynstat_wvel_min             =  -2.4622225144172E-03
(PID.TID 0000.0001) %MON dynstat_wvel_mean            =   7.5286642390212E-09
(PID.TID 0000.0001) %MON dynstat_wvel_sd              =   4.3018179673987E-05
(PID.TID 0000.0001) %MON dynstat_wvel_del2            =   1.6656523007550E-07
(PID.TID 0000.0001) %MON dynstat_theta_max            =   1.2000000000000E+00
(PID.TID 0000.0001) %MON dynstat_theta_min            =  -1.0000000000000E+00
(PID.TID 0000.0001) %MON dynstat_theta_mean           =   5.6799576990802E-01
(PID.TID 0000.0001) %MON dynstat_theta_sd             =   8.6799686623251E-01
(PID.TID 0000.0001) %MON dynstat_theta_del2           =   7.5681399919994E-06
(PID.TID 0000.0001) %MON dynstat_salt_max             =   3.4700000000000E+01
(PID.TID 0000.0001) %MON dynstat_salt_min             =   3.4000000000000E+01
(PID.TID 0000.0001) %MON dynstat_salt_mean            =   3.4498812272446E+01
(PID.TID 0000.0001) %MON dynstat_salt_sd              =   2.7614290220145E-01
(PID.TID 0000.0001) %MON dynstat_salt_del2            =   3.0014030891666E-06
(PID.TID 0000.0001) %MON advcfl_uvel_max              =   7.5734363130639E-03
(PID.TID 0000.0001) %MON advcfl_vvel_max              =   4.3970503611471E-03
(PID.TID 0000.0001) %MON advcfl_wvel_max              =   1.2465861248920E-02
(PID.TID 0000.0001) %MON advcfl_W_hf_max              =   1.2465861248920E-02
(PID.TID 0000.0001) %MON pe_b_mean                    =  -8.2958396898977E-01
(PID.TID 0000.0001) %MON ke_max                       =   2.6495848952839E-03
(PID.TID 0000.0001) %MON ke_mean                      =   3.2370425341472E-06
(PID.TID 0000.0001) %MON ke_vol                       =   4.2724648386082E+12
(PID.TID 0000.0001) // =======================================================
(PID.TID 0000.0001) // End MONITOR dynamic field statistics
(PID.TID 0000.0001) // =======================================================
(PID.TID 0000.0001) // =======================================================
(PID.TID 0000.0001) // Begin OBCS MONITOR field statistics
(PID.TID 0000.0001) // =======================================================
(PID.TID 0000.0001) %MON obc_N_vVel_max               =   1.4982906625357E-05
(PID.TID 0000.0001) %MON obc_N_vVel_min               =   1.4982906625356E-05
(PID.TID 0000.0001) %MON obc_N_vVel_mean              =   1.4982906625357E-05
(PID.TID 0000.0001) %MON obc_N_vVel_sd                =  -8.1684085489611E-24
(PID.TID 0000.0001) %MON obc_N_vVel_Int               =   9.8887183727355E+02
(PID.TID 0000.0001) // =======================================================
(PID.TID 0000.0001) // End OBCS MONITOR field statistics
(PID.TID 0000.0001) // =======================================================
 cg2d: Sum(rhs),rhsMax =   4.50799073943266E+00  2.99975362854395E+02
(PID.TID 0000.0001)      cg2d_init_res =   1.32276463173971E-05
(PID.TID 0000.0001)      cg2d_iters(min,last) =      -1      85
(PID.TID 0000.0001)      cg2d_last_res =   9.32049759905908E-12
(PID.TID 0000.0001) // =======================================================
(PID.TID 0000.0001) // Begin MONITOR dynamic field statistics
(PID.TID 0000.0001) // =======================================================
(PID.TID 0000.0001) %MON time_tsnumber                =                  1588
(PID.TID 0000.0001) %MON time_secondsf                =   1.5880000000000E+05
(PID.TID 0000.0001) %MON dynstat_eta_max              =   5.8069100470483E+00
(PID.TID 0000.0001) %MON dynstat_eta_min              =  -1.4197397498441E+01
(PID.TID 0000.0001) %MON dynstat_eta_mean             =  -2.5042336255659E+00
(PID.TID 0000.0001) %MON dynstat_eta_sd               =   4.9502498438070E+00
(PID.TID 0000.0001) %MON dynstat_eta_del2             =   2.0717656059945E-01
(PID.TID 0000.0001) %MON dynstat_uvel_max             =   1.7535138284206E-02
(PID.TID 0000.0001) %MON dynstat_uvel_min             =  -7.5899490479214E-02
(PID.TID 0000.0001) %MON dynstat_uvel_mean            =  -1.0200385396934E-07
(PID.TID 0000.0001) %MON dynstat_uvel_sd              =   2.2868447112547E-03
(PID.TID 0000.0001) %MON dynstat_uvel_del2            =   3.6460479788612E-06
(PID.TID 0000.0001) %MON dynstat_vvel_max             =   4.4012351187432E-02
(PID.TID 0000.0001) %MON dynstat_vvel_min             =  -2.7760072388034E-02
(PID.TID 0000.0001) %MON dynstat_vvel_mean            =   1.5303653851310E-05
(PID.TID 0000.0001) %MON dynstat_vvel_sd              =   1.1719536004167E-03
(PID.TID 0000.0001) %MON dynstat_vvel_del2            =   2.4352351767654E-06
(PID.TID 0000.0001) %MON dynstat_wvel_max             =   2.4959067825860E-03
(PID.TID 0000.0001) %MON dynstat_wvel_min             =  -2.4650378017004E-03
(PID.TID 0000.0001) %MON dynstat_wvel_mean            =   7.5272965413433E-09
(PID.TID 0000.0001) %MON dynstat_wvel_sd              =   4.3094427007013E-05
(PID.TID 0000.0001) %MON dynstat_wvel_del2            =   1.6683043034695E-07
(PID.TID 0000.0001) %MON dynstat_theta_max            =   1.2000000000000E+00
(PID.TID 0000.0001) %MON dynstat_theta_min            =  -1.0000000000000E+00
(PID.TID 0000.0001) %MON dynstat_theta_mean           =   5.6799364254882E-01
(PID.TID 0000.0001) %MON dynstat_theta_sd             =   8.6799580591674E-01
(PID.TID 0000.0001) %MON dynstat_theta_del2           =   7.5812435902549E-06
(PID.TID 0000.0001) %MON dynstat_salt_max             =   3.4700000000000E+01
(PID.TID 0000.0001) %MON dynstat_salt_min             =   3.4000000000000E+01
(PID.TID 0000.0001) %MON dynstat_salt_mean            =   3.4498811420863E+01
(PID.TID 0000.0001) %MON dynstat_salt_sd              =   2.7614250139731E-01
(PID.TID 0000.0001) %MON dynstat_salt_del2            =   3.0066122134749E-06
(PID.TID 0000.0001) %MON advcfl_uvel_max              =   7.5899490479214E-03
(PID.TID 0000.0001) %MON advcfl_vvel_max              =   4.4012351187432E-03
(PID.TID 0000.0001) %MON advcfl_wvel_max              =   1.2479533912930E-02
(PID.TID 0000.0001) %MON advcfl_W_hf_max              =   1.2479533912930E-02
(PID.TID 0000.0001) %MON pe_b_mean                    =  -8.2958267578974E-01
(PID.TID 0000.0001) %MON ke_max                       =   2.6600345585243E-03
(PID.TID 0000.0001) %MON ke_mean                      =   3.2498195395207E-06
(PID.TID 0000.0001) %MON ke_vol                       =   4.2724648453379E+12
(PID.TID 0000.0001) // =======================================================
(PID.TID 0000.0001) // End MONITOR dynamic field statistics
(PID.TID 0000.0001) // =======================================================
(PID.TID 0000.0001) // =======================================================
(PID.TID 0000.0001) // Begin OBCS MONITOR field statistics
(PID.TID 0000.0001) // =======================================================
(PID.TID 0000.0001) %MON obc_N_vVel_max               =   1.4978974888715E-05
(PID.TID 0000.0001) %MON obc_N_vVel_min               =   1.4978974888714E-05
(PID.TID 0000.0001) %MON obc_N_vVel_mean              =   1.4978974888714E-05
(PID.TID 0000.0001) %MON obc_N_vVel_sd                =   3.7705658432462E-12
(PID.TID 0000.0001) %MON obc_N_vVel_Int               =   9.8861234265516E+02
(PID.TID 0000.0001) // =======================================================
(PID.TID 0000.0001) // End OBCS MONITOR field statistics
(PID.TID 0000.0001) // =======================================================
 cg2d: Sum(rhs),rhsMax =   4.50798735466906E+00  2.99975444493860E+02
(PID.TID 0000.0001)      cg2d_init_res =   1.32455340775725E-05
(PID.TID 0000.0001)      cg2d_iters(min,last) =      -1      85
(PID.TID 0000.0001)      cg2d_last_res =   9.33106698929955E-12
(PID.TID 0000.0001) // =======================================================
(PID.TID 0000.0001) // Begin MONITOR dynamic field statistics
(PID.TID 0000.0001) // =======================================================
(PID.TID 0000.0001) %MON time_tsnumber                =                  1589
(PID.TID 0000.0001) %MON time_secondsf                =   1.5890000000000E+05
(PID.TID 0000.0001) %MON dynstat_eta_max              =   5.8069571640950E+00
(PID.TID 0000.0001) %MON dynstat_eta_min              =  -1.4197427334862E+01
(PID.TID 0000.0001) %MON dynstat_eta_mean             =  -2.5042324268325E+00
(PID.TID 0000.0001) %MON dynstat_eta_sd               =   4.9502501851062E+00
(PID.TID 0000.0001) %MON dynstat_eta_del2             =   2.0717662795076E-01
(PID.TID 0000.0001) %MON dynstat_uvel_max             =   1.7570802773360E-02
(PID.TID 0000.0001) %MON dynstat_uvel_min             =  -7.6064767595474E-02
(PID.TID 0000.0001) %MON dynstat_uvel_mean            =  -1.0199291836860E-07
(PID.TID 0000.0001) %MON dynstat_uvel_sd              =   2.2914225454135E-03
(PID.TID 0000.0001) %MON dynstat_uvel_del2            =   3.6546731886912E-06
(PID.TID 0000.0001) %MON dynstat_vvel_max             =   4.4054138074646E-02
(PID.TID 0000.0001) %MON dynstat_vvel_min             =  -2.7818336938182E-02
(PID.TID 0000.0001) %MON dynstat_vvel_mean            =   1.5299977746073E-05
(PID.TID 0000.0001) %MON dynstat_vvel_sd              =   1.1741251602885E-03
(PID.TID 0000.0001) %MON dynstat_vvel_del2            =   2.4398080128563E-06
(PID.TID 0000.0001) %MON dynstat_wvel_max             =   2.4986373931482E-03
(PID.TID 0000.0001) %MON dynstat_wvel_min             =  -2.4678416584919E-03
(PID.TID 0000.0001) %MON dynstat_wvel_mean            =   7.5273437196134E-09
(PID.TID 0000.0001) %MON dynstat_wvel_sd              =   4.3168449976195E-05
(PID.TID 0000.0001) %MON dynstat_wvel_del2            =   1.6708865815784E-07
(PID.TID 0000.0001) %MON dynstat_theta_max            =   1.2000000000000E+00
(PID.TID 0000.0001) %MON dynstat_theta_min            =  -1.0000000000000E+00
(PID.TID 0000.0001) %MON dynstat_theta_mean           =   5.6799151171259E-01
(PID.TID 0000.0001) %MON dynstat_theta_sd             =   8.6799474425075E-01
(PID.TID 0000.0001) %MON dynstat_theta_del2           =   7.5943648270120E-06
(PID.TID 0000.0001) %MON dynstat_salt_max             =   3.4700000000000E+01
(PID.TID 0000.0001) %MON dynstat_salt_min             =   3.4000000000000E+01
(PID.TID 0000.0001) %MON dynstat_salt_mean            =   3.4498810567893E+01
(PID.TID 0000.0001) %MON dynstat_salt_sd              =   2.7614210011701E-01
(PID.TID 0000.0001) %MON dynstat_salt_del2            =   3.0118279433009E-06
(PID.TID 0000.0001) %MON advcfl_uvel_max              =   7.6064767595474E-03
(PID.TID 0000.0001) %MON advcfl_vvel_max              =   4.4054138074646E-03
(PID.TID 0000.0001) %MON advcfl_wvel_max              =   1.2493186965741E-02
(PID.TID 0000.0001) %MON advcfl_W_hf_max              =   1.2493186965741E-02
(PID.TID 0000.0001) %MON pe_b_mean                    =  -8.2958137167999E-01
(PID.TID 0000.0001) %MON ke_max                       =   2.6705104668794E-03
(PID.TID 0000.0001) %MON ke_mean                      =   3.2626382515574E-06
(PID.TID 0000.0001) %MON ke_vol                       =   4.2724648522641E+12
(PID.TID 0000.0001) // =======================================================
(PID.TID 0000.0001) // End MONITOR dynamic field statistics
(PID.TID 0000.0001) // =======================================================
(PID.TID 0000.0001) // =======================================================
(PID.TID 0000.0001) // Begin OBCS MONITOR field statistics
(PID.TID 0000.0001) // =======================================================
(PID.TID 0000.0001) %MON obc_N_vVel_max               =   1.4975414594451E-05
(PID.TID 0000.0001) %MON obc_N_vVel_min               =   1.4975414594450E-05
(PID.TID 0000.0001) %MON obc_N_vVel_mean              =   1.4975414594451E-05
(PID.TID 0000.0001) %MON obc_N_vVel_sd                =  -2.5229008682867E-23
(PID.TID 0000.0001) %MON obc_N_vVel_Int               =   9.8837736323374E+02
(PID.TID 0000.0001) // =======================================================
(PID.TID 0000.0001) // End OBCS MONITOR field statistics
(PID.TID 0000.0001) // =======================================================
 cg2d: Sum(rhs),rhsMax =   4.50798391115771E+00  2.99975526183906E+02
(PID.TID 0000.0001)      cg2d_init_res =   1.32635840966337E-05
(PID.TID 0000.0001)      cg2d_iters(min,last) =      -1      85
(PID.TID 0000.0001)      cg2d_last_res =   9.34222065206950E-12
(PID.TID 0000.0001) // =======================================================
(PID.TID 0000.0001) // Begin MONITOR dynamic field statistics
(PID.TID 0000.0001) // =======================================================
(PID.TID 0000.0001) %MON time_tsnumber                =                  1590
(PID.TID 0000.0001) %MON time_secondsf                =   1.5900000000000E+05
(PID.TID 0000.0001) %MON dynstat_eta_max              =   5.8070044106596E+00
(PID.TID 0000.0001) %MON dynstat_eta_min              =  -1.4197457166437E+01
(PID.TID 0000.0001) %MON dynstat_eta_mean             =  -2.5042311958854E+00
(PID.TID 0000.0001) %MON dynstat_eta_sd               =   4.9502505172494E+00
(PID.TID 0000.0001) %MON dynstat_eta_del2             =   2.0717669538857E-01
(PID.TID 0000.0001) %MON dynstat_uvel_max             =   1.7606516781944E-02
(PID.TID 0000.0001) %MON dynstat_uvel_min             =  -7.6230193932238E-02
(PID.TID 0000.0001) %MON dynstat_uvel_mean            =  -1.0198658862132E-07
(PID.TID 0000.0001) %MON dynstat_uvel_sd              =   2.2960062695847E-03
(PID.TID 0000.0001) %MON dynstat_uvel_del2            =   3.6633159218944E-06
(PID.TID 0000.0001) %MON dynstat_vvel_max             =   4.4095864116970E-02
(PID.TID 0000.0001) %MON dynstat_vvel_min             =  -2.7876645813269E-02
(PID.TID 0000.0001) %MON dynstat_vvel_mean            =   1.5296895957216E-05
(PID.TID 0000.0001) %MON dynstat_vvel_sd              =   1.1762994982894E-03
(PID.TID 0000.0001) %MON dynstat_vvel_del2            =   2.4443863257872E-06
(PID.TID 0000.0001) %MON dynstat_wvel_max             =   2.5013640742514E-03
(PID.TID 0000.0001) %MON dynstat_wvel_min             =  -2.4706339011474E-03
(PID.TID 0000.0001) %MON dynstat_wvel_mean            =   7.5288282282872E-09
(PID.TID 0000.0001) %MON dynstat_wvel_sd              =   4.3240264143291E-05
(PID.TID 0000.0001) %MON dynstat_wvel_del2            =   1.6733990095234E-07
(PID.TID 0000.0001) %MON dynstat_theta_max            =   1.2000000000000E+00
(PID.TID 0000.0001) %MON dynstat_theta_min            =  -1.0000000000000E+00
(PID.TID 0000.0001) %MON dynstat_theta_mean           =   5.6798937739567E-01
(PID.TID 0000.0001) %MON dynstat_theta_sd             =   8.6799368123640E-01
(PID.TID 0000.0001) %MON dynstat_theta_del2           =   7.6075036349426E-06
(PID.TID 0000.0001) %MON dynstat_salt_max             =   3.4700000000000E+01
(PID.TID 0000.0001) %MON dynstat_salt_min             =   3.4000000000000E+01
(PID.TID 0000.0001) %MON dynstat_salt_mean            =   3.4498809713532E+01
(PID.TID 0000.0001) %MON dynstat_salt_sd              =   2.7614169836128E-01
(PID.TID 0000.0001) %MON dynstat_salt_del2            =   3.0170502618055E-06
(PID.TID 0000.0001) %MON advcfl_uvel_max              =   7.6230193932238E-03
(PID.TID 0000.0001) %MON advcfl_vvel_max              =   4.4095864116970E-03
(PID.TID 0000.0001) %MON advcfl_wvel_max              =   1.2506820371257E-02
(PID.TID 0000.0001) %MON advcfl_W_hf_max              =   1.2506820371257E-02
(PID.TID 0000.0001) %MON pe_b_mean                    =  -8.2958005680746E-01
(PID.TID 0000.0001) %MON ke_max                       =   2.6810126073622E-03
(PID.TID 0000.0001) %MON ke_mean                      =   3.2754987524902E-06
(PID.TID 0000.0001) %MON ke_vol                       =   4.2724648593846E+12
(PID.TID 0000.0001) // =======================================================
(PID.TID 0000.0001) // End MONITOR dynamic field statistics
(PID.TID 0000.0001) // =======================================================
(PID.TID 0000.0001) // =======================================================
(PID.TID 0000.0001) // Begin OBCS MONITOR field statistics
(PID.TID 0000.0001) // =======================================================
(PID.TID 0000.0001) %MON obc_N_vVel_max               =   1.4972312447003E-05
(PID.TID 0000.0001) %MON obc_N_vVel_min               =   1.4972312447002E-05
(PID.TID 0000.0001) %MON obc_N_vVel_mean              =   1.4972312447003E-05
(PID.TID 0000.0001) %MON obc_N_vVel_sd                =  -1.7319094075329E-23
(PID.TID 0000.0001) %MON obc_N_vVel_Int               =   9.8817262150218E+02
(PID.TID 0000.0001) // =======================================================
(PID.TID 0000.0001) // End OBCS MONITOR field statistics
(PID.TID 0000.0001) // =======================================================
 cg2d: Sum(rhs),rhsMax =   4.50798040977974E+00  2.99975607933844E+02
(PID.TID 0000.0001)      cg2d_init_res =   1.32818028725483E-05
(PID.TID 0000.0001)      cg2d_iters(min,last) =      -1      85
(PID.TID 0000.0001)      cg2d_last_res =   9.35389543046719E-12
(PID.TID 0000.0001) // =======================================================
(PID.TID 0000.0001) // Begin MONITOR dynamic field statistics
(PID.TID 0000.0001) // =======================================================
(PID.TID 0000.0001) %MON time_tsnumber                =                  1591
(PID.TID 0000.0001) %MON time_secondsf                =   1.5910000000000E+05
(PID.TID 0000.0001) %MON dynstat_eta_max              =   5.8070517854959E+00
(PID.TID 0000.0001) %MON dynstat_eta_min              =  -1.4197486993849E+01
(PID.TID 0000.0001) %MON dynstat_eta_mean             =  -2.5042299332917E+00
(PID.TID 0000.0001) %MON dynstat_eta_sd               =   4.9502508404834E+00
(PID.TID 0000.0001) %MON dynstat_eta_del2             =   2.0717676291319E-01
(PID.TID 0000.0001) %MON dynstat_uvel_max             =   1.7642280310824E-02
(PID.TID 0000.0001) %MON dynstat_uvel_min             =  -7.6395768939589E-02
(PID.TID 0000.0001) %MON dynstat_uvel_mean            =  -1.0198414559465E-07
(PID.TID 0000.0001) %MON dynstat_uvel_sd              =   2.3005958763553E-03
(PID.TID 0000.0001) %MON dynstat_uvel_del2            =   3.6719761880420E-06
(PID.TID 0000.0001) %MON dynstat_vvel_max             =   4.4137529155604E-02
(PID.TID 0000.0001) %MON dynstat_vvel_min             =  -2.7934998324062E-02
(PID.TID 0000.0001) %MON dynstat_vvel_mean            =   1.5294485852598E-05
(PID.TID 0000.0001) %MON dynstat_vvel_sd              =   1.1784766380423E-03
(PID.TID 0000.0001) %MON dynstat_vvel_del2            =   2.4489702712915E-06
(PID.TID 0000.0001) %MON dynstat_wvel_max             =   2.5040868187070E-03
(PID.TID 0000.0001) %MON dynstat_wvel_min             =  -2.4734143443464E-03
(PID.TID 0000.0001) %MON dynstat_wvel_mean            =   7.5317390943414E-09
(PID.TID 0000.0001) %MON dynstat_wvel_sd              =   4.3309985534476E-05
(PID.TID 0000.0001) %MON dynstat_wvel_del2            =   1.6758445430971E-07
(PID.TID 0000.0001) %MON dynstat_theta_max            =   1.2000000000000E+00
(PID.TID 0000.0001) %MON dynstat_theta_min            =  -1.0000000000000E+00
(PID.TID 0000.0001) %MON dynstat_theta_mean           =   5.6798723959468E-01
(PID.TID 0000.0001) %MON dynstat_theta_sd             =   8.6799261687439E-01
(PID.TID 0000.0001) %MON dynstat_theta_del2           =   7.6206598085791E-06
(PID.TID 0000.0001) %MON dynstat_salt_max             =   3.4700000000000E+01
(PID.TID 0000.0001) %MON dynstat_salt_min             =   3.4000000000000E+01
(PID.TID 0000.0001) %MON dynstat_salt_mean            =   3.4498808857780E+01
(PID.TID 0000.0001) %MON dynstat_salt_sd              =   2.7614129613063E-01
(PID.TID 0000.0001) %MON dynstat_salt_del2            =   3.0222791049740E-06
(PID.TID 0000.0001) %MON advcfl_uvel_max              =   7.6395768939589E-03
(PID.TID 0000.0001) %MON advcfl_vvel_max              =   4.4137529155604E-03
(PID.TID 0000.0001) %MON advcfl_wvel_max              =   1.2520434093535E-02
(PID.TID 0000.0001) %MON advcfl_W_hf_max              =   1.2520434093535E-02
(PID.TID 0000.0001) %MON pe_b_mean                    =  -8.2957873133752E-01
(PID.TID 0000.0001) %MON ke_max                       =   2.6915409672081E-03
(PID.TID 0000.0001) %MON ke_mean                      =   3.2884011521168E-06
(PID.TID 0000.0001) %MON ke_vol                       =   4.2724648666964E+12
(PID.TID 0000.0001) // =======================================================
(PID.TID 0000.0001) // End MONITOR dynamic field statistics
(PID.TID 0000.0001) // =======================================================
(PID.TID 0000.0001) // =======================================================
(PID.TID 0000.0001) // Begin OBCS MONITOR field statistics
(PID.TID 0000.0001) // =======================================================
(PID.TID 0000.0001) %MON obc_N_vVel_max               =   1.4969743696634E-05
(PID.TID 0000.0001) %MON obc_N_vVel_min               =   1.4969743696634E-05
(PID.TID 0000.0001) %MON obc_N_vVel_mean              =   1.4969743696634E-05
(PID.TID 0000.0001) %MON obc_N_vVel_sd                =   4.5870913258641E-12
(PID.TID 0000.0001) %MON obc_N_vVel_Int               =   9.8800308397782E+02
(PID.TID 0000.0001) // =======================================================
(PID.TID 0000.0001) // End OBCS MONITOR field statistics
(PID.TID 0000.0001) // =======================================================
 cg2d: Sum(rhs),rhsMax =   4.50797685154880E+00  2.99975689752447E+02
(PID.TID 0000.0001)      cg2d_init_res =   1.33001800553600E-05
(PID.TID 0000.0001)      cg2d_iters(min,last) =      -1      85
(PID.TID 0000.0001)      cg2d_last_res =   9.36599951651976E-12
(PID.TID 0000.0001) // =======================================================
(PID.TID 0000.0001) // Begin MONITOR dynamic field statistics
(PID.TID 0000.0001) // =======================================================
(PID.TID 0000.0001) %MON time_tsnumber                =                  1592
(PID.TID 0000.0001) %MON time_secondsf                =   1.5920000000000E+05
(PID.TID 0000.0001) %MON dynstat_eta_max              =   5.8070992872486E+00
(PID.TID 0000.0001) %MON dynstat_eta_min              =  -1.4197516817816E+01
(PID.TID 0000.0001) %MON dynstat_eta_mean             =  -2.5042286396878E+00
(PID.TID 0000.0001) %MON dynstat_eta_sd               =   4.9502511550639E+00
(PID.TID 0000.0001) %MON dynstat_eta_del2             =   2.0717683052486E-01
(PID.TID 0000.0001) %MON dynstat_uvel_max             =   1.7678093361083E-02
(PID.TID 0000.0001) %MON dynstat_uvel_min             =  -7.6561492059668E-02
(PID.TID 0000.0001) %MON dynstat_uvel_mean            =  -1.0198480899196E-07
(PID.TID 0000.0001) %MON dynstat_uvel_sd              =   2.3051913582131E-03
(PID.TID 0000.0001) %MON dynstat_uvel_del2            =   3.6806539967453E-06
(PID.TID 0000.0001) %MON dynstat_vvel_max             =   4.4179133029067E-02
(PID.TID 0000.0001) %MON dynstat_vvel_min             =  -2.7993393778756E-02
(PID.TID 0000.0001) %MON dynstat_vvel_mean            =   1.5292808574779E-05
(PID.TID 0000.0001) %MON dynstat_vvel_sd              =   1.1806566254538E-03
(PID.TID 0000.0001) %MON dynstat_vvel_del2            =   2.4535600813255E-06
(PID.TID 0000.0001) %MON dynstat_wvel_max             =   2.5068056193549E-03
(PID.TID 0000.0001) %MON dynstat_wvel_min             =  -2.4761828018647E-03
(PID.TID 0000.0001) %MON dynstat_wvel_mean            =   7.5360332459359E-09
(PID.TID 0000.0001) %MON dynstat_wvel_sd              =   4.3377822151390E-05
(PID.TID 0000.0001) %MON dynstat_wvel_del2            =   1.6782289226687E-07
(PID.TID 0000.0001) %MON dynstat_theta_max            =   1.2000000000000E+00
(PID.TID 0000.0001) %MON dynstat_theta_min            =  -1.0000000000000E+00
(PID.TID 0000.0001) %MON dynstat_theta_mean           =   5.6798509830654E-01
(PID.TID 0000.0001) %MON dynstat_theta_sd             =   8.6799155116581E-01
(PID.TID 0000.0001) %MON dynstat_theta_del2           =   7.6338330477242E-06
(PID.TID 0000.0001) %MON dynstat_salt_max             =   3.4700000000000E+01
(PID.TID 0000.0001) %MON dynstat_salt_min             =   3.4000000000000E+01
(PID.TID 0000.0001) %MON dynstat_salt_mean            =   3.4498808000635E+01
(PID.TID 0000.0001) %MON dynstat_salt_sd              =   2.7614089342546E-01
(PID.TID 0000.0001) %MON dynstat_salt_del2            =   3.0275143889170E-06
(PID.TID 0000.0001) %MON advcfl_uvel_max              =   7.6561492059668E-03
(PID.TID 0000.0001) %MON advcfl_vvel_max              =   4.4179133029067E-03
(PID.TID 0000.0001) %MON advcfl_wvel_max              =   1.2534028096775E-02
(PID.TID 0000.0001) %MON advcfl_W_hf_max              =   1.2534028096775E-02
(PID.TID 0000.0001) %MON pe_b_mean                    =  -8.2957739544981E-01
(PID.TID 0000.0001) %MON ke_max                       =   2.7020955335386E-03
(PID.TID 0000.0001) %MON ke_mean                      =   3.3013455862708E-06
(PID.TID 0000.0001) %MON ke_vol                       =   4.2724648741962E+12
(PID.TID 0000.0001) // =======================================================
(PID.TID 0000.0001) // End MONITOR dynamic field statistics
(PID.TID 0000.0001) // =======================================================
(PID.TID 0000.0001) // =======================================================
(PID.TID 0000.0001) // Begin OBCS MONITOR field statistics
(PID.TID 0000.0001) // =======================================================
(PID.TID 0000.0001) %MON obc_N_vVel_max               =   1.4967770543278E-05
(PID.TID 0000.0001) %MON obc_N_vVel_min               =   1.4967770543277E-05
(PID.TID 0000.0001) %MON obc_N_vVel_mean              =   1.4967770543277E-05
(PID.TID 0000.0001) %MON obc_N_vVel_sd                =   5.1222197389820E-12
(PID.TID 0000.0001) %MON obc_N_vVel_Int               =   9.8787285585630E+02
(PID.TID 0000.0001) // =======================================================
(PID.TID 0000.0001) // End OBCS MONITOR field statistics
(PID.TID 0000.0001) // =======================================================
 cg2d: Sum(rhs),rhsMax =   4.50797323758549E+00  2.99975771647742E+02
(PID.TID 0000.0001)      cg2d_init_res =   1.33187006681462E-05
(PID.TID 0000.0001)      cg2d_iters(min,last) =      -1      85
(PID.TID 0000.0001)      cg2d_last_res =   9.37843453472037E-12
(PID.TID 0000.0001) // =======================================================
(PID.TID 0000.0001) // Begin MONITOR dynamic field statistics
(PID.TID 0000.0001) // =======================================================
(PID.TID 0000.0001) %MON time_tsnumber                =                  1593
(PID.TID 0000.0001) %MON time_secondsf                =   1.5930000000000E+05
(PID.TID 0000.0001) %MON dynstat_eta_max              =   5.8071469144919E+00
(PID.TID 0000.0001) %MON dynstat_eta_min              =  -1.4197546639090E+01
(PID.TID 0000.0001) %MON dynstat_eta_mean             =  -2.5042273157631E+00
(PID.TID 0000.0001) %MON dynstat_eta_sd               =   4.9502514612496E+00
(PID.TID 0000.0001) %MON dynstat_eta_del2             =   2.0717689822381E-01
(PID.TID 0000.0001) %MON dynstat_uvel_max             =   1.7713955936472E-02
(PID.TID 0000.0001) %MON dynstat_uvel_min             =  -7.6727362725943E-02
(PID.TID 0000.0001) %MON dynstat_uvel_mean            =  -1.0198773183529E-07
(PID.TID 0000.0001) %MON dynstat_uvel_sd              =   2.3097927075897E-03
(PID.TID 0000.0001) %MON dynstat_uvel_del2            =   3.6893493576890E-06
(PID.TID 0000.0001) %MON dynstat_vvel_max             =   4.4220675572702E-02
(PID.TID 0000.0001) %MON dynstat_vvel_min             =  -2.8051831482419E-02
(PID.TID 0000.0001) %MON dynstat_vvel_mean            =   1.5291907796033E-05
(PID.TID 0000.0001) %MON dynstat_vvel_sd              =   1.1828395262501E-03
(PID.TID 0000.0001) %MON dynstat_vvel_del2            =   2.4581560505453E-06
(PID.TID 0000.0001) %MON dynstat_wvel_max             =   2.5095204690440E-03
(PID.TID 0000.0001) %MON dynstat_wvel_min             =  -2.4789390867392E-03
(PID.TID 0000.0001) %MON dynstat_wvel_mean            =   7.5416362091787E-09
(PID.TID 0000.0001) %MON dynstat_wvel_sd              =   4.3444061739158E-05
(PID.TID 0000.0001) %MON dynstat_wvel_del2            =   1.6805602665026E-07
(PID.TID 0000.0001) %MON dynstat_theta_max            =   1.2000000000000E+00
(PID.TID 0000.0001) %MON dynstat_theta_min            =  -1.0000000000000E+00
(PID.TID 0000.0001) %MON dynstat_theta_mean           =   5.6798295352844E-01
(PID.TID 0000.0001) %MON dynstat_theta_sd             =   8.6799048411105E-01
(PID.TID 0000.0001) %MON dynstat_theta_del2           =   7.6470229772295E-06
(PID.TID 0000.0001) %MON dynstat_salt_max             =   3.4700000000000E+01
(PID.TID 0000.0001) %MON dynstat_salt_min             =   3.4000000000000E+01
(PID.TID 0000.0001) %MON dynstat_salt_mean            =   3.4498807142096E+01
(PID.TID 0000.0001) %MON dynstat_salt_sd              =   2.7614049024619E-01
(PID.TID 0000.0001) %MON dynstat_salt_del2            =   3.0327560133266E-06
(PID.TID 0000.0001) %MON advcfl_uvel_max              =   7.6727362725943E-03
(PID.TID 0000.0001) %MON advcfl_vvel_max              =   4.4220675572702E-03
(PID.TID 0000.0001) %MON advcfl_wvel_max              =   1.2547602345220E-02
(PID.TID 0000.0001) %MON advcfl_W_hf_max              =   1.2547602345220E-02
(PID.TID 0000.0001) %MON pe_b_mean                    =  -8.2957604933375E-01
(PID.TID 0000.0001) %MON ke_max                       =   2.7126762932368E-03
(PID.TID 0000.0001) %MON ke_mean                      =   3.3143322142260E-06
(PID.TID 0000.0001) %MON ke_vol                       =   4.2724648818803E+12
(PID.TID 0000.0001) // =======================================================
(PID.TID 0000.0001) // End MONITOR dynamic field statistics
(PID.TID 0000.0001) // =======================================================
(PID.TID 0000.0001) // =======================================================
(PID.TID 0000.0001) // Begin OBCS MONITOR field statistics
(PID.TID 0000.0001) // =======================================================
(PID.TID 0000.0001) %MON obc_N_vVel_max               =   1.4966440836290E-05
(PID.TID 0000.0001) %MON obc_N_vVel_min               =   1.4966440836290E-05
(PID.TID 0000.0001) %MON obc_N_vVel_mean              =   1.4966440836290E-05
(PID.TID 0000.0001) %MON obc_N_vVel_sd                =   3.1341298272514E-12
(PID.TID 0000.0001) %MON obc_N_vVel_Int               =   9.8778509519511E+02
(PID.TID 0000.0001) // =======================================================
(PID.TID 0000.0001) // End OBCS MONITOR field statistics
(PID.TID 0000.0001) // =======================================================
 cg2d: Sum(rhs),rhsMax =   4.50796956908891E+00  2.99975853626865E+02
(PID.TID 0000.0001)      cg2d_init_res =   1.33373484775945E-05
(PID.TID 0000.0001)      cg2d_iters(min,last) =      -1      85
(PID.TID 0000.0001)      cg2d_last_res =   9.39109311748347E-12
(PID.TID 0000.0001) // =======================================================
(PID.TID 0000.0001) // Begin MONITOR dynamic field statistics
(PID.TID 0000.0001) // =======================================================
(PID.TID 0000.0001) %MON time_tsnumber                =                  1594
(PID.TID 0000.0001) %MON time_secondsf                =   1.5940000000000E+05
(PID.TID 0000.0001) %MON dynstat_eta_max              =   5.8071946657540E+00
(PID.TID 0000.0001) %MON dynstat_eta_min              =  -1.4197576458432E+01
(PID.TID 0000.0001) %MON dynstat_eta_mean             =  -2.5042259622433E+00
(PID.TID 0000.0001) %MON dynstat_eta_sd               =   4.9502517592969E+00
(PID.TID 0000.0001) %MON dynstat_eta_del2             =   2.0717696601024E-01
(PID.TID 0000.0001) %MON dynstat_uvel_max             =   1.7749868043641E-02
(PID.TID 0000.0001) %MON dynstat_uvel_min             =  -7.6893380363662E-02
(PID.TID 0000.0001) %MON dynstat_uvel_mean            =  -1.0199201808095E-07
(PID.TID 0000.0001) %MON dynstat_uvel_sd              =   2.3143999168756E-03
(PID.TID 0000.0001) %MON dynstat_uvel_del2            =   3.6980622805284E-06
(PID.TID 0000.0001) %MON dynstat_vvel_max             =   4.4262156618633E-02
(PID.TID 0000.0001) %MON dynstat_vvel_min             =  -2.8110310737343E-02
(PID.TID 0000.0001) %MON dynstat_vvel_mean            =   1.5291808878820E-05
(PID.TID 0000.0001) %MON dynstat_vvel_sd              =   1.1850254227014E-03
(PID.TID 0000.0001) %MON dynstat_vvel_del2            =   2.4627585205547E-06
(PID.TID 0000.0001) %MON dynstat_wvel_max             =   2.5122313606775E-03
(PID.TID 0000.0001) %MON dynstat_wvel_min             =  -2.4816830113307E-03
(PID.TID 0000.0001) %MON dynstat_wvel_mean            =   7.5484441457725E-09
(PID.TID 0000.0001) %MON dynstat_wvel_sd              =   4.3509056523505E-05
(PID.TID 0000.0001) %MON dynstat_wvel_del2            =   1.6828485943853E-07
(PID.TID 0000.0001) %MON dynstat_theta_max            =   1.2000000000000E+00
(PID.TID 0000.0001) %MON dynstat_theta_min            =  -1.0000000000000E+00
(PID.TID 0000.0001) %MON dynstat_theta_mean           =   5.6798080525790E-01
(PID.TID 0000.0001) %MON dynstat_theta_sd             =   8.6798941571051E-01
(PID.TID 0000.0001) %MON dynstat_theta_del2           =   7.6602291365471E-06
(PID.TID 0000.0001) %MON dynstat_salt_max             =   3.4700000000000E+01
(PID.TID 0000.0001) %MON dynstat_salt_min             =   3.4000000000000E+01
(PID.TID 0000.0001) %MON dynstat_salt_mean            =   3.4498806282162E+01
(PID.TID 0000.0001) %MON dynstat_salt_sd              =   2.7614008659300E-01
(PID.TID 0000.0001) %MON dynstat_salt_del2            =   3.0380038597978E-06
(PID.TID 0000.0001) %MON advcfl_uvel_max              =   7.6893380363662E-03
(PID.TID 0000.0001) %MON advcfl_vvel_max              =   4.4262156618633E-03
(PID.TID 0000.0001) %MON advcfl_wvel_max              =   1.2561156803387E-02
(PID.TID 0000.0001) %MON advcfl_W_hf_max              =   1.2561156803387E-02
(PID.TID 0000.0001) %MON pe_b_mean                    =  -8.2957469318388E-01
(PID.TID 0000.0001) %MON ke_max                       =   2.7232832329886E-03
(PID.TID 0000.0001) %MON ke_mean                      =   3.3273612150545E-06
(PID.TID 0000.0001) %MON ke_vol                       =   4.2724648897444E+12
(PID.TID 0000.0001) // =======================================================
(PID.TID 0000.0001) // End MONITOR dynamic field statistics
(PID.TID 0000.0001) // =======================================================
(PID.TID 0000.0001) // =======================================================
(PID.TID 0000.0001) // Begin OBCS MONITOR field statistics
(PID.TID 0000.0001) // =======================================================
(PID.TID 0000.0001) %MON obc_N_vVel_max               =   1.4965787095297E-05
(PID.TID 0000.0001) %MON obc_N_vVel_min               =   1.4965787095297E-05
(PID.TID 0000.0001) %MON obc_N_vVel_mean              =   1.4965787095297E-05
(PID.TID 0000.0001) %MON obc_N_vVel_sd                =  -7.7031194544001E-24
(PID.TID 0000.0001) %MON obc_N_vVel_Int               =   9.8774194828962E+02
(PID.TID 0000.0001) // =======================================================
(PID.TID 0000.0001) // End OBCS MONITOR field statistics
(PID.TID 0000.0001) // =======================================================
 cg2d: Sum(rhs),rhsMax =   4.50796584730718E+00  2.99975935695900E+02
(PID.TID 0000.0001)      cg2d_init_res =   1.33561009361609E-05
(PID.TID 0000.0001)      cg2d_iters(min,last) =      -1      85
(PID.TID 0000.0001)      cg2d_last_res =   9.40386656127952E-12
(PID.TID 0000.0001) // =======================================================
(PID.TID 0000.0001) // Begin MONITOR dynamic field statistics
(PID.TID 0000.0001) // =======================================================
(PID.TID 0000.0001) %MON time_tsnumber                =                  1595
(PID.TID 0000.0001) %MON time_secondsf                =   1.5950000000000E+05
(PID.TID 0000.0001) %MON dynstat_eta_max              =   5.8072425395670E+00
(PID.TID 0000.0001) %MON dynstat_eta_min              =  -1.4197606276591E+01
(PID.TID 0000.0001) %MON dynstat_eta_mean             =  -2.5042245798725E+00
(PID.TID 0000.0001) %MON dynstat_eta_sd               =   4.9502520494529E+00
(PID.TID 0000.0001) %MON dynstat_eta_del2             =   2.0717703388436E-01
(PID.TID 0000.0001) %MON dynstat_uvel_max             =   1.7785829696043E-02
(PID.TID 0000.0001) %MON dynstat_uvel_min             =  -7.7059544389936E-02
(PID.TID 0000.0001) %MON dynstat_uvel_mean            =  -1.0199674443191E-07
(PID.TID 0000.0001) %MON dynstat_uvel_sd              =   2.3190129784336E-03
(PID.TID 0000.0001) %MON dynstat_uvel_del2            =   3.7067927732535E-06
(PID.TID 0000.0001) %MON dynstat_vvel_max             =   4.4303575995580E-02
(PID.TID 0000.0001) %MON dynstat_vvel_min             =  -2.8168830248021E-02
(PID.TID 0000.0001) %MON dynstat_vvel_mean            =   1.5292518467192E-05
(PID.TID 0000.0001) %MON dynstat_vvel_sd              =   1.1872144097333E-03
(PID.TID 0000.0001) %MON dynstat_vvel_del2            =   2.4673678632153E-06
(PID.TID 0000.0001) %MON dynstat_wvel_max             =   2.5149382871654E-03
(PID.TID 0000.0001) %MON dynstat_wvel_min             =  -2.4844143870617E-03
(PID.TID 0000.0001) %MON dynstat_wvel_mean            =   7.5563267337780E-09
(PID.TID 0000.0001) %MON dynstat_wvel_sd              =   4.3573205574379E-05
(PID.TID 0000.0001) %MON dynstat_wvel_del2            =   1.6851052863555E-07
(PID.TID 0000.0001) %MON dynstat_theta_max            =   1.2000000000000E+00
(PID.TID 0000.0001) %MON dynstat_theta_min            =  -1.0000000000000E+00
(PID.TID 0000.0001) %MON dynstat_theta_mean           =   5.6797865349272E-01
(PID.TID 0000.0001) %MON dynstat_theta_sd             =   8.6798834596458E-01
(PID.TID 0000.0001) %MON dynstat_theta_del2           =   7.6734509961723E-06
(PID.TID 0000.0001) %MON dynstat_salt_max             =   3.4700000000000E+01
(PID.TID 0000.0001) %MON dynstat_salt_min             =   3.4000000000000E+01
(PID.TID 0000.0001) %MON dynstat_salt_mean            =   3.4498805420833E+01
(PID.TID 0000.0001) %MON dynstat_salt_sd              =   2.7613968246593E-01
(PID.TID 0000.0001) %MON dynstat_salt_del2            =   3.0432568737024E-06
(PID.TID 0000.0001) %MON advcfl_uvel_max              =   7.7059544389936E-03
(PID.TID 0000.0001) %MON advcfl_vvel_max              =   4.4303575995580E-03
(PID.TID 0000.0001) %MON advcfl_wvel_max              =   1.2574691435827E-02
(PID.TID 0000.0001) %MON advcfl_W_hf_max              =   1.2574691435827E-02
(PID.TID 0000.0001) %MON pe_b_mean                    =  -8.2957332719510E-01
(PID.TID 0000.0001) %MON ke_max                       =   2.7339163393185E-03
(PID.TID 0000.0001) %MON ke_mean                      =   3.3404327832153E-06
(PID.TID 0000.0001) %MON ke_vol                       =   4.2724648977843E+12
(PID.TID 0000.0001) // =======================================================
(PID.TID 0000.0001) // End MONITOR dynamic field statistics
(PID.TID 0000.0001) // =======================================================
(PID.TID 0000.0001) // =======================================================
(PID.TID 0000.0001) // Begin OBCS MONITOR field statistics
(PID.TID 0000.0001) // =======================================================
(PID.TID 0000.0001) %MON obc_N_vVel_max               =   1.4965825901767E-05
(PID.TID 0000.0001) %MON obc_N_vVel_min               =   1.4965825901766E-05
(PID.TID 0000.0001) %MON obc_N_vVel_mean              =   1.4965825901766E-05
(PID.TID 0000.0001) %MON obc_N_vVel_sd                =   3.6873813633581E-12
(PID.TID 0000.0001) %MON obc_N_vVel_Int               =   9.8774450951657E+02
(PID.TID 0000.0001) // =======================================================
(PID.TID 0000.0001) // End OBCS MONITOR field statistics
(PID.TID 0000.0001) // =======================================================
 cg2d: Sum(rhs),rhsMax =   4.50796207350638E+00  2.99976017859771E+02
(PID.TID 0000.0001)      cg2d_init_res =   1.33747300173651E-05
(PID.TID 0000.0001)      cg2d_iters(min,last) =      -1      85
(PID.TID 0000.0001)      cg2d_last_res =   9.41654073562322E-12
(PID.TID 0000.0001) // =======================================================
(PID.TID 0000.0001) // Begin MONITOR dynamic field statistics
(PID.TID 0000.0001) // =======================================================
(PID.TID 0000.0001) %MON time_tsnumber                =                  1596
(PID.TID 0000.0001) %MON time_secondsf                =   1.5960000000000E+05
(PID.TID 0000.0001) %MON dynstat_eta_max              =   5.8072905344961E+00
(PID.TID 0000.0001) %MON dynstat_eta_min              =  -1.4197636094303E+01
(PID.TID 0000.0001) %MON dynstat_eta_mean             =  -2.5042231693950E+00
(PID.TID 0000.0001) %MON dynstat_eta_sd               =   4.9502523319394E+00
(PID.TID 0000.0001) %MON dynstat_eta_del2             =   2.0717710184506E-01
(PID.TID 0000.0001) %MON dynstat_uvel_max             =   1.7821840904878E-02
(PID.TID 0000.0001) %MON dynstat_uvel_min             =  -7.7225854214035E-02
(PID.TID 0000.0001) %MON dynstat_uvel_mean            =  -1.0200103534259E-07
(PID.TID 0000.0001) %MON dynstat_uvel_sd              =   2.3236318847635E-03
(PID.TID 0000.0001) %MON dynstat_uvel_del2            =   3.7155408389442E-06
(PID.TID 0000.0001) %MON dynstat_vvel_max             =   4.4344933529005E-02
(PID.TID 0000.0001) %MON dynstat_vvel_min             =  -2.8227389397573E-02
(PID.TID 0000.0001) %MON dynstat_vvel_mean            =   1.5294024558068E-05
(PID.TID 0000.0001) %MON dynstat_vvel_sd              =   1.1894065908255E-03
(PID.TID 0000.0001) %MON dynstat_vvel_del2            =   2.4719844690134E-06
(PID.TID 0000.0001) %MON dynstat_wvel_max             =   2.5176412414717E-03
(PID.TID 0000.0001) %MON dynstat_wvel_min             =  -2.4871330236547E-03
(PID.TID 0000.0001) %MON dynstat_wvel_mean            =   7.5651319590600E-09
(PID.TID 0000.0001) %MON dynstat_wvel_sd              =   4.3636936309236E-05
(PID.TID 0000.0001) %MON dynstat_wvel_del2            =   1.6873426655527E-07
(PID.TID 0000.0001) %MON dynstat_theta_max            =   1.2000000000000E+00
(PID.TID 0000.0001) %MON dynstat_theta_min            =  -1.0000000000000E+00
(PID.TID 0000.0001) %MON dynstat_theta_mean           =   5.6797649823095E-01
(PID.TID 0000.0001) %MON dynstat_theta_sd             =   8.6798727487376E-01
(PID.TID 0000.0001) %MON dynstat_theta_del2           =   7.6866879852755E-06
(PID.TID 0000.0001) %MON dynstat_salt_max             =   3.4700000000000E+01
(PID.TID 0000.0001) %MON dynstat_salt_min             =   3.4000000000000E+01
(PID.TID 0000.0001) %MON dynstat_salt_mean            =   3.4498804558107E+01
(PID.TID 0000.0001) %MON dynstat_salt_sd              =   2.7613927786530E-01
(PID.TID 0000.0001) %MON dynstat_salt_del2            =   3.0485150003447E-06
(PID.TID 0000.0001) %MON advcfl_uvel_max              =   7.7225854214035E-03
(PID.TID 0000.0001) %MON advcfl_vvel_max              =   4.4344933529005E-03
(PID.TID 0000.0001) %MON advcfl_wvel_max              =   1.2588206207359E-02
(PID.TID 0000.0001) %MON advcfl_W_hf_max              =   1.2588206207359E-02
(PID.TID 0000.0001) %MON pe_b_mean                    =  -8.2957195155800E-01
(PID.TID 0000.0001) %MON ke_max                       =   2.7445755986069E-03
(PID.TID 0000.0001) %MON ke_mean                      =   3.3535471241919E-06
(PID.TID 0000.0001) %MON ke_vol                       =   4.2724649059956E+12
(PID.TID 0000.0001) // =======================================================
(PID.TID 0000.0001) // End MONITOR dynamic field statistics
(PID.TID 0000.0001) // =======================================================
(PID.TID 0000.0001) // =======================================================
(PID.TID 0000.0001) // Begin OBCS MONITOR field statistics
(PID.TID 0000.0001) // =======================================================
(PID.TID 0000.0001) %MON obc_N_vVel_max               =   1.4966557688677E-05
(PID.TID 0000.0001) %MON obc_N_vVel_min               =   1.4966557688676E-05
(PID.TID 0000.0001) %MON obc_N_vVel_mean              =   1.4966557688677E-05
(PID.TID 0000.0001) %MON obc_N_vVel_sd                =  -1.9361196212569E-23
(PID.TID 0000.0001) %MON obc_N_vVel_Int               =   9.8779280745267E+02
(PID.TID 0000.0001) // =======================================================
(PID.TID 0000.0001) // End OBCS MONITOR field statistics
(PID.TID 0000.0001) // =======================================================
 cg2d: Sum(rhs),rhsMax =   4.50795824894096E+00  2.99976100122142E+02
(PID.TID 0000.0001)      cg2d_init_res =   1.33934549853989E-05
(PID.TID 0000.0001)      cg2d_iters(min,last) =      -1      85
(PID.TID 0000.0001)      cg2d_last_res =   9.42913684507850E-12
(PID.TID 0000.0001) // =======================================================
(PID.TID 0000.0001) // Begin MONITOR dynamic field statistics
(PID.TID 0000.0001) // =======================================================
(PID.TID 0000.0001) %MON time_tsnumber                =                  1597
(PID.TID 0000.0001) %MON time_secondsf                =   1.5970000000000E+05
(PID.TID 0000.0001) %MON dynstat_eta_max              =   5.8073386491798E+00
(PID.TID 0000.0001) %MON dynstat_eta_min              =  -1.4197665912252E+01
(PID.TID 0000.0001) %MON dynstat_eta_mean             =  -2.5042217315384E+00
(PID.TID 0000.0001) %MON dynstat_eta_sd               =   4.9502526069706E+00
(PID.TID 0000.0001) %MON dynstat_eta_del2             =   2.0717716989265E-01
(PID.TID 0000.0001) %MON dynstat_uvel_max             =   1.7857901685131E-02
(PID.TID 0000.0001) %MON dynstat_uvel_min             =  -7.7392309236792E-02
(PID.TID 0000.0001) %MON dynstat_uvel_mean            =  -1.0200400845207E-07
(PID.TID 0000.0001) %MON dynstat_uvel_sd              =   2.3282566283082E-03
(PID.TID 0000.0001) %MON dynstat_uvel_del2            =   3.7243064814164E-06
(PID.TID 0000.0001) %MON dynstat_vvel_max             =   4.4386229035383E-02
(PID.TID 0000.0001) %MON dynstat_vvel_min             =  -2.8285987492985E-02
(PID.TID 0000.0001) %MON dynstat_vvel_mean            =   1.5296296914995E-05
(PID.TID 0000.0001) %MON dynstat_vvel_sd              =   1.1916020731285E-03
(PID.TID 0000.0001) %MON dynstat_vvel_del2            =   2.4766087240473E-06
(PID.TID 0000.0001) %MON dynstat_wvel_max             =   2.5203401211966E-03
(PID.TID 0000.0001) %MON dynstat_wvel_min             =  -2.4898387301954E-03
(PID.TID 0000.0001) %MON dynstat_wvel_mean            =   7.5746860542343E-09
(PID.TID 0000.0001) %MON dynstat_wvel_sd              =   4.3700684361824E-05
(PID.TID 0000.0001) %MON dynstat_wvel_del2            =   1.6895733381387E-07
(PID.TID 0000.0001) %MON dynstat_theta_max            =   1.2000000000000E+00
(PID.TID 0000.0001) %MON dynstat_theta_min            =  -1.0000000000000E+00
(PID.TID 0000.0001) %MON dynstat_theta_mean           =   5.6797433947090E-01
(PID.TID 0000.0001) %MON dynstat_theta_sd             =   8.6798620243671E-01
(PID.TID 0000.0001) %MON dynstat_theta_del2           =   7.6999395703107E-06
(PID.TID 0000.0001) %MON dynstat_salt_max             =   3.4700000000000E+01
(PID.TID 0000.0001) %MON dynstat_salt_min             =   3.4000000000000E+01
(PID.TID 0000.0001) %MON dynstat_salt_mean            =   3.4498803693983E+01
(PID.TID 0000.0001) %MON dynstat_salt_sd              =   2.7613887279122E-01
(PID.TID 0000.0001) %MON dynstat_salt_del2            =   3.0537788254512E-06
(PID.TID 0000.0001) %MON advcfl_uvel_max              =   7.7392309236792E-03
(PID.TID 0000.0001) %MON advcfl_vvel_max              =   4.4386229035383E-03
(PID.TID 0000.0001) %MON advcfl_wvel_max              =   1.2601700605983E-02
(PID.TID 0000.0001) %MON advcfl_W_hf_max              =   1.2601700605983E-02
(PID.TID 0000.0001) %MON pe_b_mean                    =  -8.2957056645434E-01
(PID.TID 0000.0001) %MON ke_max                       =   2.7552609971343E-03
(PID.TID 0000.0001) %MON ke_mean                      =   3.3667044483397E-06
(PID.TID 0000.0001) %MON ke_vol                       =   4.2724649143738E+12
(PID.TID 0000.0001) // =======================================================
(PID.TID 0000.0001) // End MONITOR dynamic field statistics
(PID.TID 0000.0001) // =======================================================
(PID.TID 0000.0001) // =======================================================
(PID.TID 0000.0001) // Begin OBCS MONITOR field statistics
(PID.TID 0000.0001) // =======================================================
(PID.TID 0000.0001) %MON obc_N_vVel_max               =   1.4967966912033E-05
(PID.TID 0000.0001) %MON obc_N_vVel_min               =   1.4967966912033E-05
(PID.TID 0000.0001) %MON obc_N_vVel_mean              =   1.4967966912033E-05
(PID.TID 0000.0001) %MON obc_N_vVel_sd                =  -4.6528909456108E-24
(PID.TID 0000.0001) %MON obc_N_vVel_Int               =   9.8788581619419E+02
(PID.TID 0000.0001) // =======================================================
(PID.TID 0000.0001) // End OBCS MONITOR field statistics
(PID.TID 0000.0001) // =======================================================
 cg2d: Sum(rhs),rhsMax =   4.50795437482315E+00  2.99976182485364E+02
(PID.TID 0000.0001)      cg2d_init_res =   1.34124149342821E-05
(PID.TID 0000.0001)      cg2d_iters(min,last) =      -1      85
(PID.TID 0000.0001)      cg2d_last_res =   9.44166321130754E-12
(PID.TID 0000.0001) // =======================================================
(PID.TID 0000.0001) // Begin MONITOR dynamic field statistics
(PID.TID 0000.0001) // =======================================================
(PID.TID 0000.0001) %MON time_tsnumber                =                  1598
(PID.TID 0000.0001) %MON time_secondsf                =   1.5980000000000E+05
(PID.TID 0000.0001) %MON dynstat_eta_max              =   5.8073868823562E+00
(PID.TID 0000.0001) %MON dynstat_eta_min              =  -1.4197695731077E+01
(PID.TID 0000.0001) %MON dynstat_eta_mean             =  -2.5042202669956E+00
(PID.TID 0000.0001) %MON dynstat_eta_sd               =   4.9502528747423E+00
(PID.TID 0000.0001) %MON dynstat_eta_del2             =   2.0717723802828E-01
(PID.TID 0000.0001) %MON dynstat_uvel_max             =   1.7894012054606E-02
(PID.TID 0000.0001) %MON dynstat_uvel_min             =  -7.7558908851215E-02
(PID.TID 0000.0001) %MON dynstat_uvel_mean            =  -1.0200475919213E-07
(PID.TID 0000.0001) %MON dynstat_uvel_sd              =   2.3328872014767E-03
(PID.TID 0000.0001) %MON dynstat_uvel_del2            =   3.7330897123066E-06
(PID.TID 0000.0001) %MON dynstat_vvel_max             =   4.4427462328656E-02
(PID.TID 0000.0001) %MON dynstat_vvel_min             =  -2.8344623833737E-02
(PID.TID 0000.0001) %MON dynstat_vvel_mean            =   1.5299287912962E-05
(PID.TID 0000.0001) %MON dynstat_vvel_sd              =   1.1938009627255E-03
(PID.TID 0000.0001) %MON dynstat_vvel_del2            =   2.4812409895623E-06
(PID.TID 0000.0001) %MON dynstat_wvel_max             =   2.5230348233287E-03
(PID.TID 0000.0001) %MON dynstat_wvel_min             =  -2.4925313152013E-03
(PID.TID 0000.0001) %MON dynstat_wvel_mean            =   7.5847993059606E-09
(PID.TID 0000.0001) %MON dynstat_wvel_sd              =   4.3764874589726E-05
(PID.TID 0000.0001) %MON dynstat_wvel_del2            =   1.6918097000517E-07
(PID.TID 0000.0001) %MON dynstat_theta_max            =   1.2000000000000E+00
(PID.TID 0000.0001) %MON dynstat_theta_min            =  -1.0000000000000E+00
(PID.TID 0000.0001) %MON dynstat_theta_mean           =   5.6797217721116E-01
(PID.TID 0000.0001) %MON dynstat_theta_sd             =   8.6798512865078E-01
(PID.TID 0000.0001) %MON dynstat_theta_del2           =   7.7132051870951E-06
(PID.TID 0000.0001) %MON dynstat_salt_max             =   3.4700000000000E+01
(PID.TID 0000.0001) %MON dynstat_salt_min             =   3.4000000000000E+01
(PID.TID 0000.0001) %MON dynstat_salt_mean            =   3.4498802828462E+01
(PID.TID 0000.0001) %MON dynstat_salt_sd              =   2.7613846724315E-01
(PID.TID 0000.0001) %MON dynstat_salt_del2            =   3.0590482954963E-06
(PID.TID 0000.0001) %MON advcfl_uvel_max              =   7.7558908851215E-03
(PID.TID 0000.0001) %MON advcfl_vvel_max              =   4.4427462328656E-03
(PID.TID 0000.0001) %MON advcfl_wvel_max              =   1.2615174116644E-02
(PID.TID 0000.0001) %MON advcfl_W_hf_max              =   1.2615174116644E-02
(PID.TID 0000.0001) %MON pe_b_mean                    =  -8.2956917205269E-01
(PID.TID 0000.0001) %MON ke_max                       =   2.7659725210754E-03
(PID.TID 0000.0001) %MON ke_mean                      =   3.3799049653363E-06
(PID.TID 0000.0001) %MON ke_vol                       =   4.2724649229147E+12
(PID.TID 0000.0001) // =======================================================
(PID.TID 0000.0001) // End MONITOR dynamic field statistics
(PID.TID 0000.0001) // =======================================================
(PID.TID 0000.0001) // =======================================================
(PID.TID 0000.0001) // Begin OBCS MONITOR field statistics
(PID.TID 0000.0001) // =======================================================
(PID.TID 0000.0001) %MON obc_N_vVel_max               =   1.4970022574470E-05
(PID.TID 0000.0001) %MON obc_N_vVel_min               =   1.4970022574470E-05
(PID.TID 0000.0001) %MON obc_N_vVel_mean              =   1.4970022574470E-05
(PID.TID 0000.0001) %MON obc_N_vVel_sd                =  -1.3131492224279E-23
(PID.TID 0000.0001) %MON obc_N_vVel_Int               =   9.8802148991503E+02
(PID.TID 0000.0001) // =======================================================
(PID.TID 0000.0001) // End OBCS MONITOR field statistics
(PID.TID 0000.0001) // =======================================================
 cg2d: Sum(rhs),rhsMax =   4.50795045226278E+00  2.99976264950458E+02
(PID.TID 0000.0001)      cg2d_init_res =   1.34311506797562E-05
(PID.TID 0000.0001)      cg2d_iters(min,last) =      -1      85
(PID.TID 0000.0001)      cg2d_last_res =   9.45409305786666E-12
(PID.TID 0000.0001) // =======================================================
(PID.TID 0000.0001) // Begin MONITOR dynamic field statistics
(PID.TID 0000.0001) // =======================================================
(PID.TID 0000.0001) %MON time_tsnumber                =                  1599
(PID.TID 0000.0001) %MON time_secondsf                =   1.5990000000000E+05
(PID.TID 0000.0001) %MON dynstat_eta_max              =   5.8074352329036E+00
(PID.TID 0000.0001) %MON dynstat_eta_min              =  -1.4197725551336E+01
(PID.TID 0000.0001) %MON dynstat_eta_mean             =  -2.5042187763917E+00
(PID.TID 0000.0001) %MON dynstat_eta_sd               =   4.9502531353868E+00
(PID.TID 0000.0001) %MON dynstat_eta_del2             =   2.0717730625123E-01
(PID.TID 0000.0001) %MON dynstat_uvel_max             =   1.7930172033187E-02
(PID.TID 0000.0001) %MON dynstat_uvel_min             =  -7.7725652442961E-02
(PID.TID 0000.0001) %MON dynstat_uvel_mean            =  -1.0200244255162E-07
(PID.TID 0000.0001) %MON dynstat_uvel_sd              =   2.3375235968102E-03
(PID.TID 0000.0001) %MON dynstat_uvel_del2            =   3.7418905425368E-06
(PID.TID 0000.0001) %MON dynstat_vvel_max             =   4.4468633222767E-02
(PID.TID 0000.0001) %MON dynstat_vvel_min             =  -2.8403297715888E-02
(PID.TID 0000.0001) %MON dynstat_vvel_mean            =   1.5302933857905E-05
(PID.TID 0000.0001) %MON dynstat_vvel_sd              =   1.1960033603775E-03
(PID.TID 0000.0001) %MON dynstat_vvel_del2            =   2.4858815935628E-06
(PID.TID 0000.0001) %MON dynstat_wvel_max             =   2.5257253513798E-03
(PID.TID 0000.0001) %MON dynstat_wvel_min             =  -2.4952105855223E-03
(PID.TID 0000.0001) %MON dynstat_wvel_mean            =   7.5952718173181E-09
(PID.TID 0000.0001) %MON dynstat_wvel_sd              =   4.3829903324801E-05
(PID.TID 0000.0001) %MON dynstat_wvel_del2            =   1.6940635621027E-07
(PID.TID 0000.0001) %MON dynstat_theta_max            =   1.2000000000000E+00
(PID.TID 0000.0001) %MON dynstat_theta_min            =  -1.0000000000000E+00
(PID.TID 0000.0001) %MON dynstat_theta_mean           =   5.6797001144841E-01
(PID.TID 0000.0001) %MON dynstat_theta_sd             =   8.6798405351179E-01
(PID.TID 0000.0001) %MON dynstat_theta_del2           =   7.7264842716800E-06
(PID.TID 0000.0001) %MON dynstat_salt_max             =   3.4700000000000E+01
(PID.TID 0000.0001) %MON dynstat_salt_min             =   3.4000000000000E+01
(PID.TID 0000.0001) %MON dynstat_salt_mean            =   3.4498801961541E+01
(PID.TID 0000.0001) %MON dynstat_salt_sd              =   2.7613806121983E-01
(PID.TID 0000.0001) %MON dynstat_salt_del2            =   3.0643232390466E-06
(PID.TID 0000.0001) %MON advcfl_uvel_max              =   7.7725652442961E-03
(PID.TID 0000.0001) %MON advcfl_vvel_max              =   4.4468633222767E-03
(PID.TID 0000.0001) %MON advcfl_wvel_max              =   1.2628626756899E-02
(PID.TID 0000.0001) %MON advcfl_W_hf_max              =   1.2628626756899E-02
(PID.TID 0000.0001) %MON pe_b_mean                    =  -8.2956776849702E-01
(PID.TID 0000.0001) %MON ke_max                       =   2.7767101565297E-03
(PID.TID 0000.0001) %MON ke_mean                      =   3.3931488794841E-06
(PID.TID 0000.0001) %MON ke_vol                       =   4.2724649316140E+12
(PID.TID 0000.0001) // =======================================================
(PID.TID 0000.0001) // End MONITOR dynamic field statistics
(PID.TID 0000.0001) // =======================================================
(PID.TID 0000.0001) // =======================================================
(PID.TID 0000.0001) // Begin OBCS MONITOR field statistics
(PID.TID 0000.0001) // =======================================================
(PID.TID 0000.0001) %MON obc_N_vVel_max               =   1.4972679108447E-05
(PID.TID 0000.0001) %MON obc_N_vVel_min               =   1.4972679108446E-05
(PID.TID 0000.0001) %MON obc_N_vVel_mean              =   1.4972679108447E-05
(PID.TID 0000.0001) %MON obc_N_vVel_sd                =  -2.0550268343114E-23
(PID.TID 0000.0001) %MON obc_N_vVel_Int               =   9.8819682115749E+02
(PID.TID 0000.0001) // =======================================================
(PID.TID 0000.0001) // End OBCS MONITOR field statistics
(PID.TID 0000.0001) // =======================================================
 cg2d: Sum(rhs),rhsMax =   4.50794648228593E+00  2.99976347517100E+02
(PID.TID 0000.0001)      cg2d_init_res =   1.34497514135027E-05
(PID.TID 0000.0001)      cg2d_iters(min,last) =      -1      85
(PID.TID 0000.0001)      cg2d_last_res =   9.46627995192335E-12
(PID.TID 0000.0001) // =======================================================
(PID.TID 0000.0001) // Begin MONITOR dynamic field statistics
(PID.TID 0000.0001) // =======================================================
(PID.TID 0000.0001) %MON time_tsnumber                =                  1600
(PID.TID 0000.0001) %MON time_secondsf                =   1.6000000000000E+05
(PID.TID 0000.0001) %MON dynstat_eta_max              =   5.8074836998554E+00
(PID.TID 0000.0001) %MON dynstat_eta_min              =  -1.4197755373514E+01
(PID.TID 0000.0001) %MON dynstat_eta_mean             =  -2.5042172602939E+00
(PID.TID 0000.0001) %MON dynstat_eta_sd               =   4.9502533890150E+00
(PID.TID 0000.0001) %MON dynstat_eta_del2             =   2.0717737456110E-01
(PID.TID 0000.0001) %MON dynstat_uvel_max             =   1.7966381644284E-02
(PID.TID 0000.0001) %MON dynstat_uvel_min             =  -7.7892539390255E-02
(PID.TID 0000.0001) %MON dynstat_uvel_mean            =  -1.0199628863464E-07
(PID.TID 0000.0001) %MON dynstat_uvel_sd              =   2.3421658069046E-03
(PID.TID 0000.0001) %MON dynstat_uvel_del2            =   3.7507089835362E-06
(PID.TID 0000.0001) %MON dynstat_vvel_max             =   4.4509741533325E-02
(PID.TID 0000.0001) %MON dynstat_vvel_min             =  -2.8462008443265E-02
(PID.TID 0000.0001) %MON dynstat_vvel_mean            =   1.5307156700158E-05
(PID.TID 0000.0001) %MON dynstat_vvel_sd              =   1.1982093574189E-03
(PID.TID 0000.0001) %MON dynstat_vvel_del2            =   2.4905308178404E-06
(PID.TID 0000.0001) %MON dynstat_wvel_max             =   2.5284116980331E-03
(PID.TID 0000.0001) %MON dynstat_wvel_min             =  -2.4978763188680E-03
(PID.TID 0000.0001) %MON dynstat_wvel_mean            =   7.6058997434326E-09
(PID.TID 0000.0001) %MON dynstat_wvel_sd              =   4.3896121725362E-05
(PID.TID 0000.0001) %MON dynstat_wvel_del2            =   1.6963457186968E-07
(PID.TID 0000.0001) %MON dynstat_theta_max            =   1.2000000000000E+00
(PID.TID 0000.0001) %MON dynstat_theta_min            =  -1.0000000000000E+00
(PID.TID 0000.0001) %MON dynstat_theta_mean           =   5.6796784218052E-01
(PID.TID 0000.0001) %MON dynstat_theta_sd             =   8.6798297701733E-01
(PID.TID 0000.0001) %MON dynstat_theta_del2           =   7.7397763390420E-06
(PID.TID 0000.0001) %MON dynstat_salt_max             =   3.4700000000000E+01
(PID.TID 0000.0001) %MON dynstat_salt_min             =   3.4000000000000E+01
(PID.TID 0000.0001) %MON dynstat_salt_mean            =   3.4498801093219E+01
(PID.TID 0000.0001) %MON dynstat_salt_sd              =   2.7613765472055E-01
(PID.TID 0000.0001) %MON dynstat_salt_del2            =   3.0696034862932E-06
(PID.TID 0000.0001) %MON advcfl_uvel_max              =   7.7892539390255E-03
(PID.TID 0000.0001) %MON advcfl_vvel_max              =   4.4509741533325E-03
(PID.TID 0000.0001) %MON advcfl_wvel_max              =   1.2642058490165E-02
(PID.TID 0000.0001) %MON advcfl_W_hf_max              =   1.2642058490165E-02
(PID.TID 0000.0001) %MON pe_b_mean                    =  -8.2956635591398E-01
(PID.TID 0000.0001) %MON ke_max                       =   2.7874738895172E-03
(PID.TID 0000.0001) %MON ke_mean                      =   3.4064363845860E-06
(PID.TID 0000.0001) %MON ke_vol                       =   4.2724649404682E+12
(PID.TID 0000.0001) // =======================================================
(PID.TID 0000.0001) // End MONITOR dynamic field statistics
(PID.TID 0000.0001) // =======================================================
(PID.TID 0000.0001) // =======================================================
(PID.TID 0000.0001) // Begin OBCS MONITOR field statistics
(PID.TID 0000.0001) // =======================================================
(PID.TID 0000.0001) %MON obc_N_vVel_max               =   1.4975877581764E-05
(PID.TID 0000.0001) %MON obc_N_vVel_min               =   1.4975877581763E-05
(PID.TID 0000.0001) %MON obc_N_vVel_mean              =   1.4975877581764E-05
(PID.TID 0000.0001) %MON obc_N_vVel_sd                =  -2.4220882311318E-23
(PID.TID 0000.0001) %MON obc_N_vVel_Int               =   9.8840792039641E+02
(PID.TID 0000.0001) // =======================================================
(PID.TID 0000.0001) // End OBCS MONITOR field statistics
(PID.TID 0000.0001) // =======================================================
 cg2d: Sum(rhs),rhsMax =   4.50794246581392E+00  2.99976430183666E+02
(PID.TID 0000.0001)      cg2d_init_res =   1.34683346081601E-05
(PID.TID 0000.0001)      cg2d_iters(min,last) =      -1      85
(PID.TID 0000.0001)      cg2d_last_res =   9.47804784561408E-12
(PID.TID 0000.0001) // =======================================================
(PID.TID 0000.0001) // Begin MONITOR dynamic field statistics
(PID.TID 0000.0001) // =======================================================
(PID.TID 0000.0001) %MON time_tsnumber                =                  1601
(PID.TID 0000.0001) %MON time_secondsf                =   1.6010000000000E+05
(PID.TID 0000.0001) %MON dynstat_eta_max              =   5.8075322824348E+00
(PID.TID 0000.0001) %MON dynstat_eta_min              =  -1.4197785198003E+01
(PID.TID 0000.0001) %MON dynstat_eta_mean             =  -2.5042157192004E+00
(PID.TID 0000.0001) %MON dynstat_eta_sd               =   4.9502536357202E+00
(PID.TID 0000.0001) %MON dynstat_eta_del2             =   2.0717744295795E-01
(PID.TID 0000.0001) %MON dynstat_uvel_max             =   1.8002640906532E-02
(PID.TID 0000.0001) %MON dynstat_uvel_min             =  -7.8059569064758E-02
(PID.TID 0000.0001) %MON dynstat_uvel_mean            =  -1.0198560203457E-07
(PID.TID 0000.0001) %MON dynstat_uvel_sd              =   2.3468138244192E-03
(PID.TID 0000.0001) %MON dynstat_uvel_del2            =   3.7595450468715E-06
(PID.TID 0000.0001) %MON dynstat_vvel_max             =   4.4550787073521E-02
(PID.TID 0000.0001) %MON dynstat_vvel_min             =  -2.8520755330938E-02
(PID.TID 0000.0001) %MON dynstat_vvel_mean            =   1.5311866093514E-05
(PID.TID 0000.0001) %MON dynstat_vvel_sd              =   1.2004190321990E-03
(PID.TID 0000.0001) %MON dynstat_vvel_del2            =   2.4951888874714E-06
(PID.TID 0000.0001) %MON dynstat_wvel_max             =   2.5310938546014E-03
(PID.TID 0000.0001) %MON dynstat_wvel_min             =  -2.5005282623692E-03
(PID.TID 0000.0001) %MON dynstat_wvel_mean            =   7.6164773597933E-09
(PID.TID 0000.0001) %MON dynstat_wvel_sd              =   4.3963821781479E-05
(PID.TID 0000.0001) %MON dynstat_wvel_del2            =   1.6986656127445E-07
(PID.TID 0000.0001) %MON dynstat_theta_max            =   1.2000000000000E+00
(PID.TID 0000.0001) %MON dynstat_theta_min            =  -1.0000000000000E+00
(PID.TID 0000.0001) %MON dynstat_theta_mean           =   5.6796566940661E-01
(PID.TID 0000.0001) %MON dynstat_theta_sd             =   8.6798189916440E-01
(PID.TID 0000.0001) %MON dynstat_theta_del2           =   7.7530810059341E-06
(PID.TID 0000.0001) %MON dynstat_salt_max             =   3.4700000000000E+01
(PID.TID 0000.0001) %MON dynstat_salt_min             =   3.4000000000000E+01
(PID.TID 0000.0001) %MON dynstat_salt_mean            =   3.4498800223496E+01
(PID.TID 0000.0001) %MON dynstat_salt_sd              =   2.7613724774440E-01
(PID.TID 0000.0001) %MON dynstat_salt_del2            =   3.0748890031331E-06
(PID.TID 0000.0001) %MON advcfl_uvel_max              =   7.8059569064758E-03
(PID.TID 0000.0001) %MON advcfl_vvel_max              =   4.4550787073521E-03
(PID.TID 0000.0001) %MON advcfl_wvel_max              =   1.2655469273007E-02
(PID.TID 0000.0001) %MON advcfl_W_hf_max              =   1.2655469273007E-02
(PID.TID 0000.0001) %MON pe_b_mean                    =  -8.2956493441073E-01
(PID.TID 0000.0001) %MON ke_max                       =   2.7982637060511E-03
(PID.TID 0000.0001) %MON ke_mean                      =   3.4197676596265E-06
(PID.TID 0000.0001) %MON ke_vol                       =   4.2724649494739E+12
(PID.TID 0000.0001) // =======================================================
(PID.TID 0000.0001) // End MONITOR dynamic field statistics
(PID.TID 0000.0001) // =======================================================
(PID.TID 0000.0001) // =======================================================
(PID.TID 0000.0001) // Begin OBCS MONITOR field statistics
(PID.TID 0000.0001) // =======================================================
(PID.TID 0000.0001) %MON obc_N_vVel_max               =   1.4979547531045E-05
(PID.TID 0000.0001) %MON obc_N_vVel_min               =   1.4979547531044E-05
(PID.TID 0000.0001) %MON obc_N_vVel_mean              =   1.4979547531044E-05
(PID.TID 0000.0001) %MON obc_N_vVel_sd                =   3.6943849430081E-12
(PID.TID 0000.0001) %MON obc_N_vVel_Int               =   9.8865013704892E+02
(PID.TID 0000.0001) // =======================================================
(PID.TID 0000.0001) // End OBCS MONITOR field statistics
(PID.TID 0000.0001) // =======================================================
 cg2d: Sum(rhs),rhsMax =   4.50793840362300E+00  2.99976512947296E+02
(PID.TID 0000.0001)      cg2d_init_res =   1.34868604722752E-05
(PID.TID 0000.0001)      cg2d_iters(min,last) =      -1      85
(PID.TID 0000.0001)      cg2d_last_res =   9.48929544620949E-12
(PID.TID 0000.0001) // =======================================================
(PID.TID 0000.0001) // Begin MONITOR dynamic field statistics
(PID.TID 0000.0001) // =======================================================
(PID.TID 0000.0001) %MON time_tsnumber                =                  1602
(PID.TID 0000.0001) %MON time_secondsf                =   1.6020000000000E+05
(PID.TID 0000.0001) %MON dynstat_eta_max              =   5.8075809800735E+00
(PID.TID 0000.0001) %MON dynstat_eta_min              =  -1.4197815025094E+01
(PID.TID 0000.0001) %MON dynstat_eta_mean             =  -2.5042141535186E+00
(PID.TID 0000.0001) %MON dynstat_eta_sd               =   4.9502538755580E+00
(PID.TID 0000.0001) %MON dynstat_eta_del2             =   2.0717751144194E-01
(PID.TID 0000.0001) %MON dynstat_uvel_max             =   1.8038949837818E-02
(PID.TID 0000.0001) %MON dynstat_uvel_min             =  -7.8226740831816E-02
(PID.TID 0000.0001) %MON dynstat_uvel_mean            =  -1.0196985219976E-07
(PID.TID 0000.0001) %MON dynstat_uvel_sd              =   2.3514676420964E-03
(PID.TID 0000.0001) %MON dynstat_uvel_del2            =   3.7683987440487E-06
(PID.TID 0000.0001) %MON dynstat_vvel_max             =   4.4591769654232E-02
(PID.TID 0000.0001) %MON dynstat_vvel_min             =  -2.8579537691398E-02
(PID.TID 0000.0001) %MON dynstat_vvel_mean            =   1.5316961217457E-05
(PID.TID 0000.0001) %MON dynstat_vvel_sd              =   1.2026324471840E-03
(PID.TID 0000.0001) %MON dynstat_vvel_del2            =   2.4998559650210E-06
(PID.TID 0000.0001) %MON dynstat_wvel_max             =   2.5337718106614E-03
(PID.TID 0000.0001) %MON dynstat_wvel_min             =  -2.5031661614126E-03
(PID.TID 0000.0001) %MON dynstat_wvel_mean            =   7.6267850728854E-09
(PID.TID 0000.0001) %MON dynstat_wvel_sd              =   4.4033225288020E-05
(PID.TID 0000.0001) %MON dynstat_wvel_del2            =   1.7010310637724E-07
(PID.TID 0000.0001) %MON dynstat_theta_max            =   1.2000000000000E+00
(PID.TID 0000.0001) %MON dynstat_theta_min            =  -1.0000000000000E+00
(PID.TID 0000.0001) %MON dynstat_theta_mean           =   5.6796349312575E-01
(PID.TID 0000.0001) %MON dynstat_theta_sd             =   8.6798081994921E-01
(PID.TID 0000.0001) %MON dynstat_theta_del2           =   7.7663979859872E-06
(PID.TID 0000.0001) %MON dynstat_salt_max             =   3.4700000000000E+01
(PID.TID 0000.0001) %MON dynstat_salt_min             =   3.4000000000000E+01
(PID.TID 0000.0001) %MON dynstat_salt_mean            =   3.4498799352371E+01
(PID.TID 0000.0001) %MON dynstat_salt_sd              =   2.7613684029081E-01
(PID.TID 0000.0001) %MON dynstat_salt_del2            =   3.0801797198271E-06
(PID.TID 0000.0001) %MON advcfl_uvel_max              =   7.8226740831816E-03
(PID.TID 0000.0001) %MON advcfl_vvel_max              =   4.4591769654232E-03
(PID.TID 0000.0001) %MON advcfl_wvel_max              =   1.2668859053307E-02
(PID.TID 0000.0001) %MON advcfl_W_hf_max              =   1.2668859053307E-02
(PID.TID 0000.0001) %MON pe_b_mean                    =  -8.2956350406740E-01
(PID.TID 0000.0001) %MON ke_max                       =   2.8090795921980E-03
(PID.TID 0000.0001) %MON ke_mean                      =   3.4331428652188E-06
(PID.TID 0000.0001) %MON ke_vol                       =   4.2724649586279E+12
(PID.TID 0000.0001) // =======================================================
(PID.TID 0000.0001) // End MONITOR dynamic field statistics
(PID.TID 0000.0001) // =======================================================
(PID.TID 0000.0001) // =======================================================
(PID.TID 0000.0001) // Begin OBCS MONITOR field statistics
(PID.TID 0000.0001) // =======================================================
(PID.TID 0000.0001) %MON obc_N_vVel_max               =   1.4983608698849E-05
(PID.TID 0000.0001) %MON obc_N_vVel_min               =   1.4983608698849E-05
(PID.TID 0000.0001) %MON obc_N_vVel_mean              =   1.4983608698849E-05
(PID.TID 0000.0001) %MON obc_N_vVel_sd                =  -4.7562885221799E-24
(PID.TID 0000.0001) %MON obc_N_vVel_Int               =   9.8891817412406E+02
(PID.TID 0000.0001) // =======================================================
(PID.TID 0000.0001) // End OBCS MONITOR field statistics
(PID.TID 0000.0001) // =======================================================
 cg2d: Sum(rhs),rhsMax =   4.50793429632990E+00  2.99976595803988E+02
(PID.TID 0000.0001)      cg2d_init_res =   1.35053164184353E-05
(PID.TID 0000.0001)      cg2d_iters(min,last) =      -1      85
(PID.TID 0000.0001)      cg2d_last_res =   9.49995617265785E-12
(PID.TID 0000.0001) // =======================================================
(PID.TID 0000.0001) // Begin MONITOR dynamic field statistics
(PID.TID 0000.0001) // =======================================================
(PID.TID 0000.0001) %MON time_tsnumber                =                  1603
(PID.TID 0000.0001) %MON time_secondsf                =   1.6030000000000E+05
(PID.TID 0000.0001) %MON dynstat_eta_max              =   5.8076297924167E+00
(PID.TID 0000.0001) %MON dynstat_eta_min              =  -1.4197844854978E+01
(PID.TID 0000.0001) %MON dynstat_eta_mean             =  -2.5042125635576E+00
(PID.TID 0000.0001) %MON dynstat_eta_sd               =   4.9502541085438E+00
(PID.TID 0000.0001) %MON dynstat_eta_del2             =   2.0717758001299E-01
(PID.TID 0000.0001) %MON dynstat_uvel_max             =   1.8075308460190E-02
(PID.TID 0000.0001) %MON dynstat_uvel_min             =  -7.8394054050507E-02
(PID.TID 0000.0001) %MON dynstat_uvel_mean            =  -1.0194864274617E-07
(PID.TID 0000.0001) %MON dynstat_uvel_sd              =   2.3561272527770E-03
(PID.TID 0000.0001) %MON dynstat_uvel_del2            =   3.7772700866069E-06
(PID.TID 0000.0001) %MON dynstat_vvel_max             =   4.4632689085517E-02
(PID.TID 0000.0001) %MON dynstat_vvel_min             =  -2.8638354828864E-02
(PID.TID 0000.0001) %MON dynstat_vvel_mean            =   1.5322333077305E-05
(PID.TID 0000.0001) %MON dynstat_vvel_sd              =   1.2048496467998E-03
(PID.TID 0000.0001) %MON dynstat_vvel_del2            =   2.5045321448372E-06
(PID.TID 0000.0001) %MON dynstat_wvel_max             =   2.5364455553212E-03
(PID.TID 0000.0001) %MON dynstat_wvel_min             =  -2.5057897651085E-03
(PID.TID 0000.0001) %MON dynstat_wvel_mean            =   7.6366411771616E-09
(PID.TID 0000.0001) %MON dynstat_wvel_sd              =   4.4104476051417E-05
(PID.TID 0000.0001) %MON dynstat_wvel_del2            =   1.7034480566365E-07
(PID.TID 0000.0001) %MON dynstat_theta_max            =   1.2000000000000E+00
(PID.TID 0000.0001) %MON dynstat_theta_min            =  -1.0000000000000E+00
(PID.TID 0000.0001) %MON dynstat_theta_mean           =   5.6796131333743E-01
(PID.TID 0000.0001) %MON dynstat_theta_sd             =   8.6797973937045E-01
(PID.TID 0000.0001) %MON dynstat_theta_del2           =   7.7797270817347E-06
(PID.TID 0000.0001) %MON dynstat_salt_max             =   3.4700000000000E+01
(PID.TID 0000.0001) %MON dynstat_salt_min             =   3.4000000000000E+01
(PID.TID 0000.0001) %MON dynstat_salt_mean            =   3.4498798479844E+01
(PID.TID 0000.0001) %MON dynstat_salt_sd              =   2.7613643235907E-01
(PID.TID 0000.0001) %MON dynstat_salt_del2            =   3.0854755856845E-06
(PID.TID 0000.0001) %MON advcfl_uvel_max              =   7.8394054050507E-03
(PID.TID 0000.0001) %MON advcfl_vvel_max              =   4.4632689085517E-03
(PID.TID 0000.0001) %MON advcfl_wvel_max              =   1.2682227776606E-02
(PID.TID 0000.0001) %MON advcfl_W_hf_max              =   1.2682227776606E-02
(PID.TID 0000.0001) %MON pe_b_mean                    =  -8.2956206493725E-01
(PID.TID 0000.0001) %MON ke_max                       =   2.8199215340371E-03
(PID.TID 0000.0001) %MON ke_mean                      =   3.4465621409055E-06
(PID.TID 0000.0001) %MON ke_vol                       =   4.2724649679281E+12
(PID.TID 0000.0001) // =======================================================
(PID.TID 0000.0001) // End MONITOR dynamic field statistics
(PID.TID 0000.0001) // =======================================================
(PID.TID 0000.0001) // =======================================================
(PID.TID 0000.0001) // Begin OBCS MONITOR field statistics
(PID.TID 0000.0001) // =======================================================
(PID.TID 0000.0001) %MON obc_N_vVel_max               =   1.4987970468672E-05
(PID.TID 0000.0001) %MON obc_N_vVel_min               =   1.4987970468671E-05
(PID.TID 0000.0001) %MON obc_N_vVel_mean              =   1.4987970468672E-05
(PID.TID 0000.0001) %MON obc_N_vVel_sd                =  -1.6802106192483E-23
(PID.TID 0000.0001) %MON obc_N_vVel_Int               =   9.8920605093234E+02
(PID.TID 0000.0001) // =======================================================
(PID.TID 0000.0001) // End OBCS MONITOR field statistics
(PID.TID 0000.0001) // =======================================================
 cg2d: Sum(rhs),rhsMax =   4.50793014437603E+00  2.99976678748751E+02
(PID.TID 0000.0001)      cg2d_init_res =   1.35236826738904E-05
(PID.TID 0000.0001)      cg2d_iters(min,last) =      -1      85
(PID.TID 0000.0001)      cg2d_last_res =   9.50995336152908E-12
(PID.TID 0000.0001) // =======================================================
(PID.TID 0000.0001) // Begin MONITOR dynamic field statistics
(PID.TID 0000.0001) // =======================================================
(PID.TID 0000.0001) %MON time_tsnumber                =                  1604
(PID.TID 0000.0001) %MON time_secondsf                =   1.6040000000000E+05
(PID.TID 0000.0001) %MON dynstat_eta_max              =   5.8076787193353E+00
(PID.TID 0000.0001) %MON dynstat_eta_min              =  -1.4197874687741E+01
(PID.TID 0000.0001) %MON dynstat_eta_mean             =  -2.5042109495209E+00
(PID.TID 0000.0001) %MON dynstat_eta_sd               =   4.9502543346561E+00
(PID.TID 0000.0001) %MON dynstat_eta_del2             =   2.0717764867113E-01
(PID.TID 0000.0001) %MON dynstat_uvel_max             =   1.8111716798252E-02
(PID.TID 0000.0001) %MON dynstat_uvel_min             =  -7.8561508072983E-02
(PID.TID 0000.0001) %MON dynstat_uvel_mean            =  -1.0192171145367E-07
(PID.TID 0000.0001) %MON dynstat_uvel_sd              =   2.3607926494018E-03
(PID.TID 0000.0001) %MON dynstat_uvel_del2            =   3.7861590861023E-06
(PID.TID 0000.0001) %MON dynstat_vvel_max             =   4.4673545177348E-02
(PID.TID 0000.0001) %MON dynstat_vvel_min             =  -2.8697206039892E-02
(PID.TID 0000.0001) %MON dynstat_vvel_mean            =   1.5327867428717E-05
(PID.TID 0000.0001) %MON dynstat_vvel_sd              =   1.2070706561346E-03
(PID.TID 0000.0001) %MON dynstat_vvel_del2            =   2.5092174508765E-06
(PID.TID 0000.0001) %MON dynstat_wvel_max             =   2.5391150781382E-03
(PID.TID 0000.0001) %MON dynstat_wvel_min             =  -2.5083988224160E-03
(PID.TID 0000.0001) %MON dynstat_wvel_mean            =   7.6458583854828E-09
(PID.TID 0000.0001) %MON dynstat_wvel_sd              =   4.4177635536921E-05
(PID.TID 0000.0001) %MON dynstat_wvel_del2            =   1.7059205906735E-07
(PID.TID 0000.0001) %MON dynstat_theta_max            =   1.2000000000000E+00
(PID.TID 0000.0001) %MON dynstat_theta_min            =  -1.0000000000000E+00
(PID.TID 0000.0001) %MON dynstat_theta_mean           =   5.6795913004123E-01
(PID.TID 0000.0001) %MON dynstat_theta_sd             =   8.6797865742545E-01
(PID.TID 0000.0001) %MON dynstat_theta_del2           =   7.7930681616054E-06
(PID.TID 0000.0001) %MON dynstat_salt_max             =   3.4700000000000E+01
(PID.TID 0000.0001) %MON dynstat_salt_min             =   3.4000000000000E+01
(PID.TID 0000.0001) %MON dynstat_salt_mean            =   3.4498797605914E+01
(PID.TID 0000.0001) %MON dynstat_salt_sd              =   2.7613602394884E-01
(PID.TID 0000.0001) %MON dynstat_salt_del2            =   3.0907765634093E-06
(PID.TID 0000.0001) %MON advcfl_uvel_max              =   7.8561508072983E-03
(PID.TID 0000.0001) %MON advcfl_vvel_max              =   4.4673545177348E-03
(PID.TID 0000.0001) %MON advcfl_wvel_max              =   1.2695575390691E-02
(PID.TID 0000.0001) %MON advcfl_W_hf_max              =   1.2695575390691E-02
(PID.TID 0000.0001) %MON pe_b_mean                    =  -8.2956061704444E-01
(PID.TID 0000.0001) %MON ke_max                       =   2.8307895176284E-03
(PID.TID 0000.0001) %MON ke_mean                      =   3.4600256034431E-06
(PID.TID 0000.0001) %MON ke_vol                       =   4.2724649773725E+12
(PID.TID 0000.0001) // =======================================================
(PID.TID 0000.0001) // End MONITOR dynamic field statistics
(PID.TID 0000.0001) // =======================================================
(PID.TID 0000.0001) // =======================================================
(PID.TID 0000.0001) // Begin OBCS MONITOR field statistics
(PID.TID 0000.0001) // =======================================================
(PID.TID 0000.0001) %MON obc_N_vVel_max               =   1.4992537988452E-05
(PID.TID 0000.0001) %MON obc_N_vVel_min               =   1.4992537988451E-05
(PID.TID 0000.0001) %MON obc_N_vVel_mean              =   1.4992537988451E-05
(PID.TID 0000.0001) %MON obc_N_vVel_sd                =   1.3923737144428E-12
(PID.TID 0000.0001) %MON obc_N_vVel_Int               =   9.8950750723779E+02
(PID.TID 0000.0001) // =======================================================
(PID.TID 0000.0001) // End OBCS MONITOR field statistics
(PID.TID 0000.0001) // =======================================================
 cg2d: Sum(rhs),rhsMax =   4.50792594801879E+00  2.99976761775674E+02
(PID.TID 0000.0001)      cg2d_init_res =   1.35419413904780E-05
(PID.TID 0000.0001)      cg2d_iters(min,last) =      -1      85
(PID.TID 0000.0001)      cg2d_last_res =   9.51927996825174E-12
(PID.TID 0000.0001) // =======================================================
(PID.TID 0000.0001) // Begin MONITOR dynamic field statistics
(PID.TID 0000.0001) // =======================================================
(PID.TID 0000.0001) %MON time_tsnumber                =                  1605
(PID.TID 0000.0001) %MON time_secondsf                =   1.6050000000000E+05
(PID.TID 0000.0001) %MON dynstat_eta_max              =   5.8077277609404E+00
(PID.TID 0000.0001) %MON dynstat_eta_min              =  -1.4197904523357E+01
(PID.TID 0000.0001) %MON dynstat_eta_mean             =  -2.5042093115023E+00
(PID.TID 0000.0001) %MON dynstat_eta_sd               =   4.9502545538339E+00
(PID.TID 0000.0001) %MON dynstat_eta_del2             =   2.0717771741627E-01
(PID.TID 0000.0001) %MON dynstat_uvel_max             =   1.8148174878126E-02
(PID.TID 0000.0001) %MON dynstat_uvel_min             =  -7.8729102244747E-02
(PID.TID 0000.0001) %MON dynstat_uvel_mean            =  -1.0188894201217E-07
(PID.TID 0000.0001) %MON dynstat_uvel_sd              =   2.3654638250164E-03
(PID.TID 0000.0001) %MON dynstat_uvel_del2            =   3.7950657536639E-06
(PID.TID 0000.0001) %MON dynstat_vvel_max             =   4.4714337740060E-02
(PID.TID 0000.0001) %MON dynstat_vvel_min             =  -2.8756090613523E-02
(PID.TID 0000.0001) %MON dynstat_vvel_mean            =   1.5333447415429E-05
(PID.TID 0000.0001) %MON dynstat_vvel_sd              =   1.2092954805344E-03
(PID.TID 0000.0001) %MON dynstat_vvel_del2            =   2.5139118375968E-06
(PID.TID 0000.0001) %MON dynstat_wvel_max             =   2.5417803693588E-03
(PID.TID 0000.0001) %MON dynstat_wvel_min             =  -2.5109930822444E-03
(PID.TID 0000.0001) %MON dynstat_wvel_mean            =   7.6542685571978E-09
(PID.TID 0000.0001) %MON dynstat_wvel_sd              =   4.4252682080128E-05
(PID.TID 0000.0001) %MON dynstat_wvel_del2            =   1.7084505890085E-07
(PID.TID 0000.0001) %MON dynstat_theta_max            =   1.2000000000000E+00
(PID.TID 0000.0001) %MON dynstat_theta_min            =  -1.0000000000000E+00
(PID.TID 0000.0001) %MON dynstat_theta_mean           =   5.6795694323679E-01
(PID.TID 0000.0001) %MON dynstat_theta_sd             =   8.6797757411198E-01
(PID.TID 0000.0001) %MON dynstat_theta_del2           =   7.8064213065925E-06
(PID.TID 0000.0001) %MON dynstat_salt_max             =   3.4700000000000E+01
(PID.TID 0000.0001) %MON dynstat_salt_min             =   3.4000000000000E+01
(PID.TID 0000.0001) %MON dynstat_salt_mean            =   3.4498796730582E+01
(PID.TID 0000.0001) %MON dynstat_salt_sd              =   2.7613561505934E-01
(PID.TID 0000.0001) %MON dynstat_salt_del2            =   3.0960826797044E-06
(PID.TID 0000.0001) %MON advcfl_uvel_max              =   7.8729102244747E-03
(PID.TID 0000.0001) %MON advcfl_vvel_max              =   4.4714337740060E-03
(PID.TID 0000.0001) %MON advcfl_wvel_max              =   1.2708901846794E-02
(PID.TID 0000.0001) %MON advcfl_W_hf_max              =   1.2708901846794E-02
(PID.TID 0000.0001) %MON pe_b_mean                    =  -8.2955916038360E-01
(PID.TID 0000.0001) %MON ke_max                       =   2.8416835290268E-03
(PID.TID 0000.0001) %MON ke_mean                      =   3.4735333461528E-06
(PID.TID 0000.0001) %MON ke_vol                       =   4.2724649869598E+12
(PID.TID 0000.0001) // =======================================================
(PID.TID 0000.0001) // End MONITOR dynamic field statistics
(PID.TID 0000.0001) // =======================================================
(PID.TID 0000.0001) // =======================================================
(PID.TID 0000.0001) // Begin OBCS MONITOR field statistics
(PID.TID 0000.0001) // =======================================================
(PID.TID 0000.0001) %MON obc_N_vVel_max               =   1.4997212246661E-05
(PID.TID 0000.0001) %MON obc_N_vVel_min               =   1.4997212246660E-05
(PID.TID 0000.0001) %MON obc_N_vVel_mean              =   1.4997212246661E-05
(PID.TID 0000.0001) %MON obc_N_vVel_sd                =  -1.1166938269466E-23
(PID.TID 0000.0001) %MON obc_N_vVel_Int               =   9.8981600827960E+02
(PID.TID 0000.0001) // =======================================================
(PID.TID 0000.0001) // End OBCS MONITOR field statistics
(PID.TID 0000.0001) // =======================================================
 cg2d: Sum(rhs),rhsMax =   4.50792170732530E+00  2.99976844878139E+02
(PID.TID 0000.0001)      cg2d_init_res =   1.35600775275507E-05
(PID.TID 0000.0001)      cg2d_iters(min,last) =      -1      85
(PID.TID 0000.0001)      cg2d_last_res =   9.52792796238726E-12
(PID.TID 0000.0001) // =======================================================
(PID.TID 0000.0001) // Begin MONITOR dynamic field statistics
(PID.TID 0000.0001) // =======================================================
(PID.TID 0000.0001) %MON time_tsnumber                =                  1606
(PID.TID 0000.0001) %MON time_secondsf                =   1.6060000000000E+05
(PID.TID 0000.0001) %MON dynstat_eta_max              =   5.8077769175649E+00
(PID.TID 0000.0001) %MON dynstat_eta_min              =  -1.4197934361708E+01
(PID.TID 0000.0001) %MON dynstat_eta_mean             =  -2.5042076494835E+00
(PID.TID 0000.0001) %MON dynstat_eta_sd               =   4.9502547659802E+00
(PID.TID 0000.0001) %MON dynstat_eta_del2             =   2.0717778624831E-01
(PID.TID 0000.0001) %MON dynstat_uvel_max             =   1.8184682727004E-02
(PID.TID 0000.0001) %MON dynstat_uvel_min             =  -7.8896835905169E-02
(PID.TID 0000.0001) %MON dynstat_uvel_mean            =  -1.0185036510917E-07
(PID.TID 0000.0001) %MON dynstat_uvel_sd              =   2.3701407727436E-03
(PID.TID 0000.0001) %MON dynstat_uvel_del2            =   3.8039901001639E-06
(PID.TID 0000.0001) %MON dynstat_vvel_max             =   4.4755066585076E-02
(PID.TID 0000.0001) %MON dynstat_vvel_min             =  -2.8815007831023E-02
(PID.TID 0000.0001) %MON dynstat_vvel_mean            =   1.5338956287693E-05
(PID.TID 0000.0001) %MON dynstat_vvel_sd              =   1.2115241060474E-03
(PID.TID 0000.0001) %MON dynstat_vvel_del2            =   2.5186151930337E-06
(PID.TID 0000.0001) %MON dynstat_wvel_max             =   2.5444414199052E-03
(PID.TID 0000.0001) %MON dynstat_wvel_min             =  -2.5135722933835E-03
(PID.TID 0000.0001) %MON dynstat_wvel_mean            =   7.6617237878336E-09
(PID.TID 0000.0001) %MON dynstat_wvel_sd              =   4.4329513585856E-05
(PID.TID 0000.0001) %MON dynstat_wvel_del2            =   1.7110378652228E-07
(PID.TID 0000.0001) %MON dynstat_theta_max            =   1.2000000000000E+00
(PID.TID 0000.0001) %MON dynstat_theta_min            =  -1.0000000000000E+00
(PID.TID 0000.0001) %MON dynstat_theta_mean           =   5.6795475292382E-01
(PID.TID 0000.0001) %MON dynstat_theta_sd             =   8.6797648942566E-01
(PID.TID 0000.0001) %MON dynstat_theta_del2           =   7.8197866304669E-06
(PID.TID 0000.0001) %MON dynstat_salt_max             =   3.4700000000000E+01
(PID.TID 0000.0001) %MON dynstat_salt_min             =   3.4000000000000E+01
(PID.TID 0000.0001) %MON dynstat_salt_mean            =   3.4498795853847E+01
(PID.TID 0000.0001) %MON dynstat_salt_sd              =   2.7613520568963E-01
(PID.TID 0000.0001) %MON dynstat_salt_del2            =   3.1013939800827E-06
(PID.TID 0000.0001) %MON advcfl_uvel_max              =   7.8896835905169E-03
(PID.TID 0000.0001) %MON advcfl_vvel_max              =   4.4755066585076E-03
(PID.TID 0000.0001) %MON advcfl_wvel_max              =   1.2722207099526E-02
(PID.TID 0000.0001) %MON advcfl_W_hf_max              =   1.2722207099526E-02
(PID.TID 0000.0001) %MON pe_b_mean                    =  -8.2955769491998E-01
(PID.TID 0000.0001) %MON ke_max                       =   2.8526035543249E-03
(PID.TID 0000.0001) %MON ke_mean                      =   3.4870854392189E-06
(PID.TID 0000.0001) %MON ke_vol                       =   4.2724649966897E+12
(PID.TID 0000.0001) // =======================================================
(PID.TID 0000.0001) // End MONITOR dynamic field statistics
(PID.TID 0000.0001) // =======================================================
(PID.TID 0000.0001) // =======================================================
(PID.TID 0000.0001) // Begin OBCS MONITOR field statistics
(PID.TID 0000.0001) // =======================================================
(PID.TID 0000.0001) %MON obc_N_vVel_max               =   1.5001892677325E-05
(PID.TID 0000.0001) %MON obc_N_vVel_min               =   1.5001892677325E-05
(PID.TID 0000.0001) %MON obc_N_vVel_mean              =   1.5001892677325E-05
(PID.TID 0000.0001) %MON obc_N_vVel_sd                =   3.0589999476146E-12
(PID.TID 0000.0001) %MON obc_N_vVel_Int               =   9.9012491670344E+02
(PID.TID 0000.0001) // =======================================================
(PID.TID 0000.0001) // End OBCS MONITOR field statistics
(PID.TID 0000.0001) // =======================================================
 cg2d: Sum(rhs),rhsMax =   4.50791742217188E+00  2.99976928048988E+02
(PID.TID 0000.0001)      cg2d_init_res =   1.35780809454745E-05
(PID.TID 0000.0001)      cg2d_iters(min,last) =      -1      85
(PID.TID 0000.0001)      cg2d_last_res =   9.53590456912865E-12
(PID.TID 0000.0001) // =======================================================
(PID.TID 0000.0001) // Begin MONITOR dynamic field statistics
(PID.TID 0000.0001) // =======================================================
(PID.TID 0000.0001) %MON time_tsnumber                =                  1607
(PID.TID 0000.0001) %MON time_secondsf                =   1.6070000000000E+05
(PID.TID 0000.0001) %MON dynstat_eta_max              =   5.8078261897653E+00
(PID.TID 0000.0001) %MON dynstat_eta_min              =  -1.4197964202567E+01
(PID.TID 0000.0001) %MON dynstat_eta_mean             =  -2.5042059633364E+00
(PID.TID 0000.0001) %MON dynstat_eta_sd               =   4.9502549709651E+00
(PID.TID 0000.0001) %MON dynstat_eta_del2             =   2.0717785516720E-01
(PID.TID 0000.0001) %MON dynstat_uvel_max             =   1.8221240373153E-02
(PID.TID 0000.0001) %MON dynstat_uvel_min             =  -7.9064708387520E-02
(PID.TID 0000.0001) %MON dynstat_uvel_mean            =  -1.0180614412878E-07
(PID.TID 0000.0001) %MON dynstat_uvel_sd              =   2.3748234857795E-03
(PID.TID 0000.0001) %MON dynstat_uvel_del2            =   3.8129321362346E-06
(PID.TID 0000.0001) %MON dynstat_vvel_max             =   4.4795731525259E-02
(PID.TID 0000.0001) %MON dynstat_vvel_min             =  -2.8873956965075E-02
(PID.TID 0000.0001) %MON dynstat_vvel_mean            =   1.5344280095742E-05
(PID.TID 0000.0001) %MON dynstat_vvel_sd              =   1.2137565006848E-03
(PID.TID 0000.0001) %MON dynstat_vvel_del2            =   2.5233273443826E-06
(PID.TID 0000.0001) %MON dynstat_wvel_max             =   2.5470982213194E-03
(PID.TID 0000.0001) %MON dynstat_wvel_min             =  -2.5161362046588E-03
(PID.TID 0000.0001) %MON dynstat_wvel_mean            =   7.6680999223411E-09
(PID.TID 0000.0001) %MON dynstat_wvel_sd              =   4.4407953548427E-05
(PID.TID 0000.0001) %MON dynstat_wvel_del2            =   1.7136801502707E-07
(PID.TID 0000.0001) %MON dynstat_theta_max            =   1.2000000000000E+00
(PID.TID 0000.0001) %MON dynstat_theta_min            =  -1.0000000000000E+00
(PID.TID 0000.0001) %MON dynstat_theta_mean           =   5.6795255910209E-01
(PID.TID 0000.0001) %MON dynstat_theta_sd             =   8.6797540336165E-01
(PID.TID 0000.0001) %MON dynstat_theta_del2           =   7.8331633326625E-06
(PID.TID 0000.0001) %MON dynstat_salt_max             =   3.4700000000000E+01
(PID.TID 0000.0001) %MON dynstat_salt_min             =   3.4000000000000E+01
(PID.TID 0000.0001) %MON dynstat_salt_mean            =   3.4498794975708E+01
(PID.TID 0000.0001) %MON dynstat_salt_sd              =   2.7613479583831E-01
(PID.TID 0000.0001) %MON dynstat_salt_del2            =   3.1067105483752E-06
(PID.TID 0000.0001) %MON advcfl_uvel_max              =   7.9064708387520E-03
(PID.TID 0000.0001) %MON advcfl_vvel_max              =   4.4795731525259E-03
(PID.TID 0000.0001) %MON advcfl_wvel_max              =   1.2735491106597E-02
(PID.TID 0000.0001) %MON advcfl_W_hf_max              =   1.2735491106597E-02
(PID.TID 0000.0001) %MON pe_b_mean                    =  -8.2955622059055E-01
(PID.TID 0000.0001) %MON ke_max                       =   2.8635495796632E-03
(PID.TID 0000.0001) %MON ke_mean                      =   3.5006819310365E-06
(PID.TID 0000.0001) %MON ke_vol                       =   4.2724650065621E+12
(PID.TID 0000.0001) // =======================================================
(PID.TID 0000.0001) // End MONITOR dynamic field statistics
(PID.TID 0000.0001) // =======================================================
(PID.TID 0000.0001) // =======================================================
(PID.TID 0000.0001) // Begin OBCS MONITOR field statistics
(PID.TID 0000.0001) // =======================================================
(PID.TID 0000.0001) %MON obc_N_vVel_max               =   1.5006479524536E-05
(PID.TID 0000.0001) %MON obc_N_vVel_min               =   1.5006479524536E-05
(PID.TID 0000.0001) %MON obc_N_vVel_mean              =   1.5006479524536E-05
(PID.TID 0000.0001) %MON obc_N_vVel_sd                =   3.3724966156550E-12
(PID.TID 0000.0001) %MON obc_N_vVel_Int               =   9.9042764861935E+02
(PID.TID 0000.0001) // =======================================================
(PID.TID 0000.0001) // End OBCS MONITOR field statistics
(PID.TID 0000.0001) // =======================================================
 cg2d: Sum(rhs),rhsMax =   4.50791309224623E+00  2.99977011280697E+02
(PID.TID 0000.0001)      cg2d_init_res =   1.35959457522943E-05
(PID.TID 0000.0001)      cg2d_iters(min,last) =      -1      85
(PID.TID 0000.0001)      cg2d_last_res =   9.54323994857643E-12
(PID.TID 0000.0001) // =======================================================
(PID.TID 0000.0001) // Begin MONITOR dynamic field statistics
(PID.TID 0000.0001) // =======================================================
(PID.TID 0000.0001) %MON time_tsnumber                =                  1608
(PID.TID 0000.0001) %MON time_secondsf                =   1.6080000000000E+05
(PID.TID 0000.0001) %MON dynstat_eta_max              =   5.8078755783114E+00
(PID.TID 0000.0001) %MON dynstat_eta_min              =  -1.4197994045623E+01
(PID.TID 0000.0001) %MON dynstat_eta_mean             =  -2.5042042528244E+00
(PID.TID 0000.0001) %MON dynstat_eta_sd               =   4.9502551686276E+00
(PID.TID 0000.0001) %MON dynstat_eta_del2             =   2.0717792417286E-01
(PID.TID 0000.0001) %MON dynstat_uvel_max             =   1.8257847845783E-02
(PID.TID 0000.0001) %MON dynstat_uvel_min             =  -7.9232719019252E-02
(PID.TID 0000.0001) %MON dynstat_uvel_mean            =  -1.0175656002315E-07
(PID.TID 0000.0001) %MON dynstat_uvel_sd              =   2.3795119573684E-03
(PID.TID 0000.0001) %MON dynstat_uvel_del2            =   3.8218918717004E-06
(PID.TID 0000.0001) %MON dynstat_vvel_max             =   4.4836332375615E-02
(PID.TID 0000.0001) %MON dynstat_vvel_min             =  -2.8932937279647E-02
(PID.TID 0000.0001) %MON dynstat_vvel_mean            =   1.5349310278084E-05
(PID.TID 0000.0001) %MON dynstat_vvel_sd              =   1.2159926164055E-03
(PID.TID 0000.0001) %MON dynstat_vvel_del2            =   2.5280480659158E-06
(PID.TID 0000.0001) %MON dynstat_wvel_max             =   2.5497507656489E-03
(PID.TID 0000.0001) %MON dynstat_wvel_min             =  -2.5186845649060E-03
(PID.TID 0000.0001) %MON dynstat_wvel_mean            =   7.6732991974689E-09
(PID.TID 0000.0001) %MON dynstat_wvel_sd              =   4.4487760061080E-05
(PID.TID 0000.0001) %MON dynstat_wvel_del2            =   1.7163731743370E-07
(PID.TID 0000.0001) %MON dynstat_theta_max            =   1.2000000000000E+00
(PID.TID 0000.0001) %MON dynstat_theta_min            =  -1.0000000000000E+00
(PID.TID 0000.0001) %MON dynstat_theta_mean           =   5.6795036177129E-01
(PID.TID 0000.0001) %MON dynstat_theta_sd             =   8.6797431591773E-01
(PID.TID 0000.0001) %MON dynstat_theta_del2           =   7.8465527276658E-06
(PID.TID 0000.0001) %MON dynstat_salt_max             =   3.4700000000000E+01
(PID.TID 0000.0001) %MON dynstat_salt_min             =   3.4000000000000E+01
(PID.TID 0000.0001) %MON dynstat_salt_mean            =   3.4498794096165E+01
(PID.TID 0000.0001) %MON dynstat_salt_sd              =   2.7613438550500E-01
(PID.TID 0000.0001) %MON dynstat_salt_del2            =   3.1120324733988E-06
(PID.TID 0000.0001) %MON advcfl_uvel_max              =   7.9232719019252E-03
(PID.TID 0000.0001) %MON advcfl_vvel_max              =   4.4836332375615E-03
(PID.TID 0000.0001) %MON advcfl_wvel_max              =   1.2748753828245E-02
(PID.TID 0000.0001) %MON advcfl_W_hf_max              =   1.2748753828245E-02
(PID.TID 0000.0001) %MON pe_b_mean                    =  -8.2955473730518E-01
(PID.TID 0000.0001) %MON ke_max                       =   2.8745215912415E-03
(PID.TID 0000.0001) %MON ke_mean                      =   3.5143228504061E-06
(PID.TID 0000.0001) %MON ke_vol                       =   4.2724650165778E+12
(PID.TID 0000.0001) // =======================================================
(PID.TID 0000.0001) // End MONITOR dynamic field statistics
(PID.TID 0000.0001) // =======================================================
(PID.TID 0000.0001) // =======================================================
(PID.TID 0000.0001) // Begin OBCS MONITOR field statistics
(PID.TID 0000.0001) // =======================================================
(PID.TID 0000.0001) %MON obc_N_vVel_max               =   1.5010876151979E-05
(PID.TID 0000.0001) %MON obc_N_vVel_min               =   1.5010876151979E-05
(PID.TID 0000.0001) %MON obc_N_vVel_mean              =   1.5010876151979E-05
(PID.TID 0000.0001) %MON obc_N_vVel_sd                =   3.2315871075188E-12
(PID.TID 0000.0001) %MON obc_N_vVel_Int               =   9.9071782603061E+02
(PID.TID 0000.0001) // =======================================================
(PID.TID 0000.0001) // End OBCS MONITOR field statistics
(PID.TID 0000.0001) // =======================================================
 cg2d: Sum(rhs),rhsMax =   4.50790871705724E+00  2.99977094565558E+02
(PID.TID 0000.0001)      cg2d_init_res =   1.36136623985073E-05
(PID.TID 0000.0001)      cg2d_iters(min,last) =      -1      85
(PID.TID 0000.0001)      cg2d_last_res =   9.54996462953816E-12
(PID.TID 0000.0001) // =======================================================
(PID.TID 0000.0001) // Begin MONITOR dynamic field statistics
(PID.TID 0000.0001) // =======================================================
(PID.TID 0000.0001) %MON time_tsnumber                =                  1609
(PID.TID 0000.0001) %MON time_secondsf                =   1.6090000000000E+05
(PID.TID 0000.0001) %MON dynstat_eta_max              =   5.8079250841612E+00
(PID.TID 0000.0001) %MON dynstat_eta_min              =  -1.4198023890480E+01
(PID.TID 0000.0001) %MON dynstat_eta_mean             =  -2.5042025176103E+00
(PID.TID 0000.0001) %MON dynstat_eta_sd               =   4.9502553587806E+00
(PID.TID 0000.0001) %MON dynstat_eta_del2             =   2.0717799326520E-01
(PID.TID 0000.0001) %MON dynstat_uvel_max             =   1.8294505174811E-02
(PID.TID 0000.0001) %MON dynstat_uvel_min             =  -7.9400867122283E-02
(PID.TID 0000.0001) %MON dynstat_uvel_mean            =  -1.0170202452540E-07
(PID.TID 0000.0001) %MON dynstat_uvel_sd              =   2.3842061808124E-03
(PID.TID 0000.0001) %MON dynstat_uvel_del2            =   3.8308693164067E-06
(PID.TID 0000.0001) %MON dynstat_vvel_max             =   4.4876868953810E-02
(PID.TID 0000.0001) %MON dynstat_vvel_min             =  -2.8991948028862E-02
(PID.TID 0000.0001) %MON dynstat_vvel_mean            =   1.5353946124086E-05
(PID.TID 0000.0001) %MON dynstat_vvel_sd              =   1.2182323919248E-03
(PID.TID 0000.0001) %MON dynstat_vvel_del2            =   2.5327770884950E-06
(PID.TID 0000.0001) %MON dynstat_wvel_max             =   2.5523990453731E-03
(PID.TID 0000.0001) %MON dynstat_wvel_min             =  -2.5212171231033E-03
(PID.TID 0000.0001) %MON dynstat_wvel_mean            =   7.6772517237801E-09
(PID.TID 0000.0001) %MON dynstat_wvel_sd              =   4.4568637409431E-05
(PID.TID 0000.0001) %MON dynstat_wvel_del2            =   1.7191108137786E-07
(PID.TID 0000.0001) %MON dynstat_theta_max            =   1.2000000000000E+00
(PID.TID 0000.0001) %MON dynstat_theta_min            =  -1.0000000000000E+00
(PID.TID 0000.0001) %MON dynstat_theta_mean           =   5.6794816093115E-01
(PID.TID 0000.0001) %MON dynstat_theta_sd             =   8.6797322709271E-01
(PID.TID 0000.0001) %MON dynstat_theta_del2           =   7.8599553920987E-06
(PID.TID 0000.0001) %MON dynstat_salt_max             =   3.4700000000000E+01
(PID.TID 0000.0001) %MON dynstat_salt_min             =   3.4000000000000E+01
(PID.TID 0000.0001) %MON dynstat_salt_mean            =   3.4498793215218E+01
(PID.TID 0000.0001) %MON dynstat_salt_sd              =   2.7613397468916E-01
(PID.TID 0000.0001) %MON dynstat_salt_del2            =   3.1173598893713E-06
(PID.TID 0000.0001) %MON advcfl_uvel_max              =   7.9400867122283E-03
(PID.TID 0000.0001) %MON advcfl_vvel_max              =   4.4876868953810E-03
(PID.TID 0000.0001) %MON advcfl_wvel_max              =   1.2761995226865E-02
(PID.TID 0000.0001) %MON advcfl_W_hf_max              =   1.2761995226865E-02
(PID.TID 0000.0001) %MON pe_b_mean                    =  -8.2955324494914E-01
(PID.TID 0000.0001) %MON ke_max                       =   2.8855195753374E-03
(PID.TID 0000.0001) %MON ke_mean                      =   3.5280082098346E-06
(PID.TID 0000.0001) %MON ke_vol                       =   4.2724650267382E+12
(PID.TID 0000.0001) // =======================================================
(PID.TID 0000.0001) // End MONITOR dynamic field statistics
(PID.TID 0000.0001) // =======================================================
(PID.TID 0000.0001) // =======================================================
(PID.TID 0000.0001) // Begin OBCS MONITOR field statistics
(PID.TID 0000.0001) // =======================================================
(PID.TID 0000.0001) %MON obc_N_vVel_max               =   1.5014991289310E-05
(PID.TID 0000.0001) %MON obc_N_vVel_min               =   1.5014991289309E-05
(PID.TID 0000.0001) %MON obc_N_vVel_mean              =   1.5014991289309E-05
(PID.TID 0000.0001) %MON obc_N_vVel_sd                =   4.5103739523432E-12
(PID.TID 0000.0001) %MON obc_N_vVel_Int               =   9.9098942509440E+02
(PID.TID 0000.0001) // =======================================================
(PID.TID 0000.0001) // End OBCS MONITOR field statistics
(PID.TID 0000.0001) // =======================================================
 cg2d: Sum(rhs),rhsMax =   4.50790429594571E+00  2.99977177895889E+02
(PID.TID 0000.0001)      cg2d_init_res =   1.36312325540251E-05
(PID.TID 0000.0001)      cg2d_iters(min,last) =      -1      85
(PID.TID 0000.0001)      cg2d_last_res =   9.55612218612854E-12
(PID.TID 0000.0001) // =======================================================
(PID.TID 0000.0001) // Begin MONITOR dynamic field statistics
(PID.TID 0000.0001) // =======================================================
(PID.TID 0000.0001) %MON time_tsnumber                =                  1610
(PID.TID 0000.0001) %MON time_secondsf                =   1.6100000000000E+05
(PID.TID 0000.0001) %MON dynstat_eta_max              =   5.8079747084487E+00
(PID.TID 0000.0001) %MON dynstat_eta_min              =  -1.4198053736677E+01
(PID.TID 0000.0001) %MON dynstat_eta_mean             =  -2.5042007572640E+00
(PID.TID 0000.0001) %MON dynstat_eta_sd               =   4.9502555412153E+00
(PID.TID 0000.0001) %MON dynstat_eta_del2             =   2.0717806244416E-01
(PID.TID 0000.0001) %MON dynstat_uvel_max             =   1.8331212390143E-02
(PID.TID 0000.0001) %MON dynstat_uvel_min             =  -7.9569152013232E-02
(PID.TID 0000.0001) %MON dynstat_uvel_mean            =  -1.0164303401006E-07
(PID.TID 0000.0001) %MON dynstat_uvel_sd              =   2.3889061494462E-03
(PID.TID 0000.0001) %MON dynstat_uvel_del2            =   3.8398644798273E-06
(PID.TID 0000.0001) %MON dynstat_vvel_max             =   4.4917341080611E-02
(PID.TID 0000.0001) %MON dynstat_vvel_min             =  -2.9050988456389E-02
(PID.TID 0000.0001) %MON dynstat_vvel_mean            =   1.5358097015291E-05
(PID.TID 0000.0001) %MON dynstat_vvel_sd              =   1.2204757559297E-03
(PID.TID 0000.0001) %MON dynstat_vvel_del2            =   2.5375141111771E-06
(PID.TID 0000.0001) %MON dynstat_wvel_max             =   2.5550430533199E-03
(PID.TID 0000.0001) %MON dynstat_wvel_min             =  -2.5237336341322E-03
(PID.TID 0000.0001) %MON dynstat_wvel_mean            =   7.6799169007260E-09
(PID.TID 0000.0001) %MON dynstat_wvel_sd              =   4.4650249757304E-05
(PID.TID 0000.0001) %MON dynstat_wvel_del2            =   1.7218852918759E-07
(PID.TID 0000.0001) %MON dynstat_theta_max            =   1.2000000000000E+00
(PID.TID 0000.0001) %MON dynstat_theta_min            =  -1.0000000000000E+00
(PID.TID 0000.0001) %MON dynstat_theta_mean           =   5.6794595658132E-01
(PID.TID 0000.0001) %MON dynstat_theta_sd             =   8.6797213688467E-01
(PID.TID 0000.0001) %MON dynstat_theta_del2           =   7.8733683975536E-06
(PID.TID 0000.0001) %MON dynstat_salt_max             =   3.4700000000000E+01
(PID.TID 0000.0001) %MON dynstat_salt_min             =   3.4000000000000E+01
(PID.TID 0000.0001) %MON dynstat_salt_mean            =   3.4498792332866E+01
(PID.TID 0000.0001) %MON dynstat_salt_sd              =   2.7613356339118E-01
(PID.TID 0000.0001) %MON dynstat_salt_del2            =   3.1226928931410E-06
(PID.TID 0000.0001) %MON advcfl_uvel_max              =   7.9569152013232E-03
(PID.TID 0000.0001) %MON advcfl_vvel_max              =   4.4917341080611E-03
(PID.TID 0000.0001) %MON advcfl_wvel_max              =   1.2775215266599E-02
(PID.TID 0000.0001) %MON advcfl_W_hf_max              =   1.2775215266599E-02
(PID.TID 0000.0001) %MON pe_b_mean                    =  -8.2955174338566E-01
(PID.TID 0000.0001) %MON ke_max                       =   2.8965435183299E-03
(PID.TID 0000.0001) %MON ke_mean                      =   3.5417380092848E-06
(PID.TID 0000.0001) %MON ke_vol                       =   4.2724650370454E+12
(PID.TID 0000.0001) // =======================================================
(PID.TID 0000.0001) // End MONITOR dynamic field statistics
(PID.TID 0000.0001) // =======================================================
(PID.TID 0000.0001) // =======================================================
(PID.TID 0000.0001) // Begin OBCS MONITOR field statistics
(PID.TID 0000.0001) // =======================================================
(PID.TID 0000.0001) %MON obc_N_vVel_max               =   1.5018741079979E-05
(PID.TID 0000.0001) %MON obc_N_vVel_min               =   1.5018741079978E-05
(PID.TID 0000.0001) %MON obc_N_vVel_mean              =   1.5018741079979E-05
(PID.TID 0000.0001) %MON obc_N_vVel_sd                =  -1.0520703415909E-23
(PID.TID 0000.0001) %MON obc_N_vVel_Int               =   9.9123691127859E+02
(PID.TID 0000.0001) // =======================================================
(PID.TID 0000.0001) // End OBCS MONITOR field statistics
(PID.TID 0000.0001) // =======================================================
 cg2d: Sum(rhs),rhsMax =   4.50789982810080E+00  2.99977261264193E+02
(PID.TID 0000.0001)      cg2d_init_res =   1.36487413515424E-05
(PID.TID 0000.0001)      cg2d_iters(min,last) =      -1      85
(PID.TID 0000.0001)      cg2d_last_res =   9.56180970202878E-12
(PID.TID 0000.0001) // =======================================================
(PID.TID 0000.0001) // Begin MONITOR dynamic field statistics
(PID.TID 0000.0001) // =======================================================
(PID.TID 0000.0001) %MON time_tsnumber                =                  1611
(PID.TID 0000.0001) %MON time_secondsf                =   1.6110000000000E+05
(PID.TID 0000.0001) %MON dynstat_eta_max              =   5.8080244524549E+00
(PID.TID 0000.0001) %MON dynstat_eta_min              =  -1.4198083583686E+01
(PID.TID 0000.0001) %MON dynstat_eta_mean             =  -2.5041989712722E+00
(PID.TID 0000.0001) %MON dynstat_eta_sd               =   4.9502557157089E+00
(PID.TID 0000.0001) %MON dynstat_eta_del2             =   2.0717813171013E-01
(PID.TID 0000.0001) %MON dynstat_uvel_max             =   1.8367969521718E-02
(PID.TID 0000.0001) %MON dynstat_uvel_min             =  -7.9737573003737E-02
(PID.TID 0000.0001) %MON dynstat_uvel_mean            =  -1.0158016411039E-07
(PID.TID 0000.0001) %MON dynstat_uvel_sd              =   2.3936118565879E-03
(PID.TID 0000.0001) %MON dynstat_uvel_del2            =   3.8488773735265E-06
(PID.TID 0000.0001) %MON dynstat_vvel_max             =   4.4957748580337E-02
(PID.TID 0000.0001) %MON dynstat_vvel_min             =  -2.9110057795354E-02
(PID.TID 0000.0001) %MON dynstat_vvel_mean            =   1.5361684409376E-05
(PID.TID 0000.0001) %MON dynstat_vvel_sd              =   1.2227226305183E-03
(PID.TID 0000.0001) %MON dynstat_vvel_del2            =   2.5422588113652E-06
(PID.TID 0000.0001) %MON dynstat_wvel_max             =   2.5576827826152E-03
(PID.TID 0000.0001) %MON dynstat_wvel_min             =  -2.5262338571621E-03
(PID.TID 0000.0001) %MON dynstat_wvel_mean            =   7.6812838854291E-09
(PID.TID 0000.0001) %MON dynstat_wvel_sd              =   4.4732236260182E-05
(PID.TID 0000.0001) %MON dynstat_wvel_del2            =   1.7246874181293E-07
(PID.TID 0000.0001) %MON dynstat_theta_max            =   1.2000000000000E+00
(PID.TID 0000.0001) %MON dynstat_theta_min            =  -1.0000000000000E+00
(PID.TID 0000.0001) %MON dynstat_theta_mean           =   5.6794374872140E-01
(PID.TID 0000.0001) %MON dynstat_theta_sd             =   8.6797104529323E-01
(PID.TID 0000.0001) %MON dynstat_theta_del2           =   7.8867942619171E-06
(PID.TID 0000.0001) %MON dynstat_salt_max             =   3.4700000000000E+01
(PID.TID 0000.0001) %MON dynstat_salt_min             =   3.4000000000000E+01
(PID.TID 0000.0001) %MON dynstat_salt_mean            =   3.4498791449109E+01
(PID.TID 0000.0001) %MON dynstat_salt_sd              =   2.7613315161077E-01
(PID.TID 0000.0001) %MON dynstat_salt_del2            =   3.1280316262208E-06
(PID.TID 0000.0001) %MON advcfl_uvel_max              =   7.9737573003737E-03
(PID.TID 0000.0001) %MON advcfl_vvel_max              =   4.4957748580337E-03
(PID.TID 0000.0001) %MON advcfl_wvel_max              =   1.2788413913076E-02
(PID.TID 0000.0001) %MON advcfl_W_hf_max              =   1.2788413913076E-02
(PID.TID 0000.0001) %MON pe_b_mean                    =  -8.2955023245913E-01
(PID.TID 0000.0001) %MON ke_max                       =   2.9075934067003E-03
(PID.TID 0000.0001) %MON ke_mean                      =   3.5555122401820E-06
(PID.TID 0000.0001) %MON ke_vol                       =   4.2724650475019E+12
(PID.TID 0000.0001) // =======================================================
(PID.TID 0000.0001) // End MONITOR dynamic field statistics
(PID.TID 0000.0001) // =======================================================
(PID.TID 0000.0001) // =======================================================
(PID.TID 0000.0001) // Begin OBCS MONITOR field statistics
(PID.TID 0000.0001) // =======================================================
(PID.TID 0000.0001) %MON obc_N_vVel_max               =   1.5022050923265E-05
(PID.TID 0000.0001) %MON obc_N_vVel_min               =   1.5022050923264E-05
(PID.TID 0000.0001) %MON obc_N_vVel_mean              =   1.5022050923264E-05
(PID.TID 0000.0001) %MON obc_N_vVel_sd                =   2.4594223365038E-12
(PID.TID 0000.0001) %MON obc_N_vVel_Int               =   9.9145536093546E+02
(PID.TID 0000.0001) // =======================================================
(PID.TID 0000.0001) // End OBCS MONITOR field statistics
(PID.TID 0000.0001) // =======================================================
 cg2d: Sum(rhs),rhsMax =   4.50789531257842E+00  2.99977344663377E+02
(PID.TID 0000.0001)      cg2d_init_res =   1.36660606960188E-05
(PID.TID 0000.0001)      cg2d_iters(min,last) =      -1      85
(PID.TID 0000.0001)      cg2d_last_res =   9.56701865403778E-12
(PID.TID 0000.0001) // =======================================================
(PID.TID 0000.0001) // Begin MONITOR dynamic field statistics
(PID.TID 0000.0001) // =======================================================
(PID.TID 0000.0001) %MON time_tsnumber                =                  1612
(PID.TID 0000.0001) %MON time_secondsf                =   1.6120000000000E+05
(PID.TID 0000.0001) %MON dynstat_eta_max              =   5.8080743175714E+00
(PID.TID 0000.0001) %MON dynstat_eta_min              =  -1.4198113430948E+01
(PID.TID 0000.0001) %MON dynstat_eta_mean             =  -2.5041971590514E+00
(PID.TID 0000.0001) %MON dynstat_eta_sd               =   4.9502558820191E+00
(PID.TID 0000.0001) %MON dynstat_eta_del2             =   2.0717820106264E-01
(PID.TID 0000.0001) %MON dynstat_uvel_max             =   1.8404776599946E-02
(PID.TID 0000.0001) %MON dynstat_uvel_min             =  -7.9906129400436E-02
(PID.TID 0000.0001) %MON dynstat_uvel_mean            =  -1.0151408826964E-07
(PID.TID 0000.0001) %MON dynstat_uvel_sd              =   2.3983232955758E-03
(PID.TID 0000.0001) %MON dynstat_uvel_del2            =   3.8579080070232E-06
(PID.TID 0000.0001) %MON dynstat_vvel_max             =   4.4998091280945E-02
(PID.TID 0000.0001) %MON dynstat_vvel_min             =  -2.9169155268194E-02
(PID.TID 0000.0001) %MON dynstat_vvel_mean            =   1.5364643567198E-05
(PID.TID 0000.0001) %MON dynstat_vvel_sd              =   1.2249729352336E-03
(PID.TID 0000.0001) %MON dynstat_vvel_del2            =   2.5470108619659E-06
(PID.TID 0000.0001) %MON dynstat_wvel_max             =   2.5603182267005E-03
(PID.TID 0000.0001) %MON dynstat_wvel_min             =  -2.5287175516414E-03
(PID.TID 0000.0001) %MON dynstat_wvel_mean            =   7.6813731249404E-09
(PID.TID 0000.0001) %MON dynstat_wvel_sd              =   4.4814227248487E-05
(PID.TID 0000.0001) %MON dynstat_wvel_del2            =   1.7275069538783E-07
(PID.TID 0000.0001) %MON dynstat_theta_max            =   1.2000000000000E+00
(PID.TID 0000.0001) %MON dynstat_theta_min            =  -1.0000000000000E+00
(PID.TID 0000.0001) %MON dynstat_theta_mean           =   5.6794153735089E-01
(PID.TID 0000.0001) %MON dynstat_theta_sd             =   8.6796995231776E-01
(PID.TID 0000.0001) %MON dynstat_theta_del2           =   7.9002347918274E-06
(PID.TID 0000.0001) %MON dynstat_salt_max             =   3.4700000000000E+01
(PID.TID 0000.0001) %MON dynstat_salt_min             =   3.4000000000000E+01
(PID.TID 0000.0001) %MON dynstat_salt_mean            =   3.4498790563948E+01
(PID.TID 0000.0001) %MON dynstat_salt_sd              =   2.7613273934759E-01
(PID.TID 0000.0001) %MON dynstat_salt_del2            =   3.1333762090686E-06
(PID.TID 0000.0001) %MON advcfl_uvel_max              =   7.9906129400436E-03
(PID.TID 0000.0001) %MON advcfl_vvel_max              =   4.4998091280945E-03
(PID.TID 0000.0001) %MON advcfl_wvel_max              =   1.2801591133503E-02
(PID.TID 0000.0001) %MON advcfl_W_hf_max              =   1.2801591133503E-02
(PID.TID 0000.0001) %MON pe_b_mean                    =  -8.2954871199865E-01
(PID.TID 0000.0001) %MON ke_max                       =   2.9186692270345E-03
(PID.TID 0000.0001) %MON ke_mean                      =   3.5693308903918E-06
(PID.TID 0000.0001) %MON ke_vol                       =   4.2724650581106E+12
(PID.TID 0000.0001) // =======================================================
(PID.TID 0000.0001) // End MONITOR dynamic field statistics
(PID.TID 0000.0001) // =======================================================
(PID.TID 0000.0001) // =======================================================
(PID.TID 0000.0001) // Begin OBCS MONITOR field statistics
(PID.TID 0000.0001) // =======================================================
(PID.TID 0000.0001) %MON obc_N_vVel_max               =   1.5024857125737E-05
(PID.TID 0000.0001) %MON obc_N_vVel_min               =   1.5024857125737E-05
(PID.TID 0000.0001) %MON obc_N_vVel_mean              =   1.5024857125737E-05
(PID.TID 0000.0001) %MON obc_N_vVel_sd                =  -2.2669918662781E-23
(PID.TID 0000.0001) %MON obc_N_vVel_Int               =   9.9164057029865E+02
(PID.TID 0000.0001) // =======================================================
(PID.TID 0000.0001) // End OBCS MONITOR field statistics
(PID.TID 0000.0001) // =======================================================
 cg2d: Sum(rhs),rhsMax =   4.50789074832384E+00  2.99977428086869E+02
(PID.TID 0000.0001)      cg2d_init_res =   1.36832199258626E-05
(PID.TID 0000.0001)      cg2d_iters(min,last) =      -1      85
(PID.TID 0000.0001)      cg2d_last_res =   9.57184405063866E-12
(PID.TID 0000.0001) // =======================================================
(PID.TID 0000.0001) // Begin MONITOR dynamic field statistics
(PID.TID 0000.0001) // =======================================================
(PID.TID 0000.0001) %MON time_tsnumber                =                  1613
(PID.TID 0000.0001) %MON time_secondsf                =   1.6130000000000E+05
(PID.TID 0000.0001) %MON dynstat_eta_max              =   5.8081243052896E+00
(PID.TID 0000.0001) %MON dynstat_eta_min              =  -1.4198143277865E+01
(PID.TID 0000.0001) %MON dynstat_eta_mean             =  -2.5041953199607E+00
(PID.TID 0000.0001) %MON dynstat_eta_sd               =   4.9502560398998E+00
(PID.TID 0000.0001) %MON dynstat_eta_del2             =   2.0717827050149E-01
(PID.TID 0000.0001) %MON dynstat_uvel_max             =   1.8441633655346E-02
(PID.TID 0000.0001) %MON dynstat_uvel_min             =  -8.0074820505105E-02
(PID.TID 0000.0001) %MON dynstat_uvel_mean            =  -1.0144556377618E-07
(PID.TID 0000.0001) %MON dynstat_uvel_sd              =   2.4030404597624E-03
(PID.TID 0000.0001) %MON dynstat_uvel_del2            =   3.8669563882817E-06
(PID.TID 0000.0001) %MON dynstat_vvel_max             =   4.5038369014684E-02
(PID.TID 0000.0001) %MON dynstat_vvel_min             =  -2.9228280086228E-02
(PID.TID 0000.0001) %MON dynstat_vvel_mean            =   1.5366924906656E-05
(PID.TID 0000.0001) %MON dynstat_vvel_sd              =   1.2272265908867E-03
(PID.TID 0000.0001) %MON dynstat_vvel_del2            =   2.5517699445600E-06
(PID.TID 0000.0001) %MON dynstat_wvel_max             =   2.5629493791705E-03
(PID.TID 0000.0001) %MON dynstat_wvel_min             =  -2.5311844775795E-03
(PID.TID 0000.0001) %MON dynstat_wvel_mean            =   7.6802335969835E-09
(PID.TID 0000.0001) %MON dynstat_wvel_sd              =   4.4895860474275E-05
(PID.TID 0000.0001) %MON dynstat_wvel_del2            =   1.7303329685407E-07
(PID.TID 0000.0001) %MON dynstat_theta_max            =   1.2000000000000E+00
(PID.TID 0000.0001) %MON dynstat_theta_min            =  -1.0000000000000E+00
(PID.TID 0000.0001) %MON dynstat_theta_mean           =   5.6793932246913E-01
(PID.TID 0000.0001) %MON dynstat_theta_sd             =   8.6796885795610E-01
(PID.TID 0000.0001) %MON dynstat_theta_del2           =   7.9136904990082E-06
(PID.TID 0000.0001) %MON dynstat_salt_max             =   3.4700000000000E+01
(PID.TID 0000.0001) %MON dynstat_salt_min             =   3.4000000000000E+01
(PID.TID 0000.0001) %MON dynstat_salt_mean            =   3.4498789677380E+01
(PID.TID 0000.0001) %MON dynstat_salt_sd              =   2.7613232660146E-01
(PID.TID 0000.0001) %MON dynstat_salt_del2            =   3.1387267659104E-06
(PID.TID 0000.0001) %MON advcfl_uvel_max              =   8.0074820505105E-03
(PID.TID 0000.0001) %MON advcfl_vvel_max              =   4.5038369014684E-03
(PID.TID 0000.0001) %MON advcfl_wvel_max              =   1.2814746895853E-02
(PID.TID 0000.0001) %MON advcfl_W_hf_max              =   1.2814746895853E-02
(PID.TID 0000.0001) %MON pe_b_mean                    =  -8.2954718182195E-01
(PID.TID 0000.0001) %MON ke_max                       =   2.9297709660349E-03
(PID.TID 0000.0001) %MON ke_mean                      =   3.5831939488861E-06
(PID.TID 0000.0001) %MON ke_vol                       =   4.2724650688752E+12
(PID.TID 0000.0001) // =======================================================
(PID.TID 0000.0001) // End MONITOR dynamic field statistics
(PID.TID 0000.0001) // =======================================================
(PID.TID 0000.0001) // =======================================================
(PID.TID 0000.0001) // Begin OBCS MONITOR field statistics
(PID.TID 0000.0001) // =======================================================
(PID.TID 0000.0001) %MON obc_N_vVel_max               =   1.5027108268985E-05
(PID.TID 0000.0001) %MON obc_N_vVel_min               =   1.5027108268985E-05
(PID.TID 0000.0001) %MON obc_N_vVel_mean              =   1.5027108268985E-05
(PID.TID 0000.0001) %MON obc_N_vVel_sd                =   4.6486657766447E-12
(PID.TID 0000.0001) %MON obc_N_vVel_Int               =   9.9178914575300E+02
(PID.TID 0000.0001) // =======================================================
(PID.TID 0000.0001) // End OBCS MONITOR field statistics
(PID.TID 0000.0001) // =======================================================
 cg2d: Sum(rhs),rhsMax =   4.50788613419549E+00  2.99977511528811E+02
(PID.TID 0000.0001)      cg2d_init_res =   1.37002655452970E-05
(PID.TID 0000.0001)      cg2d_iters(min,last) =      -1      85
(PID.TID 0000.0001)      cg2d_last_res =   9.57638356697674E-12
(PID.TID 0000.0001) // =======================================================
(PID.TID 0000.0001) // Begin MONITOR dynamic field statistics
(PID.TID 0000.0001) // =======================================================
(PID.TID 0000.0001) %MON time_tsnumber                =                  1614
(PID.TID 0000.0001) %MON time_secondsf                =   1.6140000000000E+05
(PID.TID 0000.0001) %MON dynstat_eta_max              =   5.8081808290381E+00
(PID.TID 0000.0001) %MON dynstat_eta_min              =  -1.4198173123836E+01
(PID.TID 0000.0001) %MON dynstat_eta_mean             =  -2.5041934533170E+00
(PID.TID 0000.0001) %MON dynstat_eta_sd               =   4.9502561891057E+00
(PID.TID 0000.0001) %MON dynstat_eta_del2             =   2.0717834002671E-01
(PID.TID 0000.0001) %MON dynstat_uvel_max             =   1.8478540718753E-02
(PID.TID 0000.0001) %MON dynstat_uvel_min             =  -8.0243645614566E-02
(PID.TID 0000.0001) %MON dynstat_uvel_mean            =  -1.0137539920196E-07
(PID.TID 0000.0001) %MON dynstat_uvel_sd              =   2.4077633424764E-03
(PID.TID 0000.0001) %MON dynstat_uvel_del2            =   3.8760225245475E-06
(PID.TID 0000.0001) %MON dynstat_vvel_max             =   4.5078581618195E-02
(PID.TID 0000.0001) %MON dynstat_vvel_min             =  -2.9287431449660E-02
(PID.TID 0000.0001) %MON dynstat_vvel_mean            =   1.5368494997074E-05
(PID.TID 0000.0001) %MON dynstat_vvel_sd              =   1.2294835232886E-03
(PID.TID 0000.0001) %MON dynstat_vvel_del2            =   2.5565357625276E-06
(PID.TID 0000.0001) %MON dynstat_wvel_max             =   2.5655762337901E-03
(PID.TID 0000.0001) %MON dynstat_wvel_min             =  -2.5336343953706E-03
(PID.TID 0000.0001) %MON dynstat_wvel_mean            =   7.6779424590573E-09
(PID.TID 0000.0001) %MON dynstat_wvel_sd              =   4.4976796947904E-05
(PID.TID 0000.0001) %MON dynstat_wvel_del2            =   1.7331542533329E-07
(PID.TID 0000.0001) %MON dynstat_theta_max            =   1.2000000000000E+00
(PID.TID 0000.0001) %MON dynstat_theta_min            =  -1.0000000000000E+00
(PID.TID 0000.0001) %MON dynstat_theta_mean           =   5.6793710407535E-01
(PID.TID 0000.0001) %MON dynstat_theta_sd             =   8.6796776220835E-01
(PID.TID 0000.0001) %MON dynstat_theta_del2           =   7.9271618900422E-06
(PID.TID 0000.0001) %MON dynstat_salt_max             =   3.4700000000000E+01
(PID.TID 0000.0001) %MON dynstat_salt_min             =   3.4000000000000E+01
(PID.TID 0000.0001) %MON dynstat_salt_mean            =   3.4498788789406E+01
(PID.TID 0000.0001) %MON dynstat_salt_sd              =   2.7613191337236E-01
(PID.TID 0000.0001) %MON dynstat_salt_del2            =   3.1440834280394E-06
(PID.TID 0000.0001) %MON advcfl_uvel_max              =   8.0243645614566E-03
(PID.TID 0000.0001) %MON advcfl_vvel_max              =   4.5078581618195E-03
(PID.TID 0000.0001) %MON advcfl_wvel_max              =   1.2827881168951E-02
(PID.TID 0000.0001) %MON advcfl_W_hf_max              =   1.2827881168951E-02
(PID.TID 0000.0001) %MON pe_b_mean                    =  -8.2954564173953E-01
(PID.TID 0000.0001) %MON ke_max                       =   2.9408986105134E-03
(PID.TID 0000.0001) %MON ke_mean                      =   3.5971014102690E-06
(PID.TID 0000.0001) %MON ke_vol                       =   4.2724650797994E+12
(PID.TID 0000.0001) // =======================================================
(PID.TID 0000.0001) // End MONITOR dynamic field statistics
(PID.TID 0000.0001) // =======================================================
(PID.TID 0000.0001) // =======================================================
(PID.TID 0000.0001) // Begin OBCS MONITOR field statistics
(PID.TID 0000.0001) // =======================================================
(PID.TID 0000.0001) %MON obc_N_vVel_max               =   1.5028766247818E-05
(PID.TID 0000.0001) %MON obc_N_vVel_min               =   1.5028766247818E-05
(PID.TID 0000.0001) %MON obc_N_vVel_mean              =   1.5028766247818E-05
(PID.TID 0000.0001) %MON obc_N_vVel_sd                =  -1.4398112537251E-23
(PID.TID 0000.0001) %MON obc_N_vVel_Int               =   9.9189857235597E+02
(PID.TID 0000.0001) // =======================================================
(PID.TID 0000.0001) // End OBCS MONITOR field statistics
(PID.TID 0000.0001) // =======================================================
 cg2d: Sum(rhs),rhsMax =   4.50788146899143E+00  2.99977594984172E+02
(PID.TID 0000.0001)      cg2d_init_res =   1.37172129031649E-05
(PID.TID 0000.0001)      cg2d_iters(min,last) =      -1      85
(PID.TID 0000.0001)      cg2d_last_res =   9.58073060790692E-12
(PID.TID 0000.0001) // =======================================================
(PID.TID 0000.0001) // Begin MONITOR dynamic field statistics
(PID.TID 0000.0001) // =======================================================
(PID.TID 0000.0001) %MON time_tsnumber                =                  1615
(PID.TID 0000.0001) %MON time_secondsf                =   1.6150000000000E+05
(PID.TID 0000.0001) %MON dynstat_eta_max              =   5.8082980988608E+00
(PID.TID 0000.0001) %MON dynstat_eta_min              =  -1.4198202968245E+01
(PID.TID 0000.0001) %MON dynstat_eta_mean             =  -2.5041915584107E+00
(PID.TID 0000.0001) %MON dynstat_eta_sd               =   4.9502563293957E+00
(PID.TID 0000.0001) %MON dynstat_eta_del2             =   2.0717840963829E-01
(PID.TID 0000.0001) %MON dynstat_uvel_max             =   1.8515497821106E-02
(PID.TID 0000.0001) %MON dynstat_uvel_min             =  -8.0412604020511E-02
(PID.TID 0000.0001) %MON dynstat_uvel_mean            =  -1.0130443031869E-07
(PID.TID 0000.0001) %MON dynstat_uvel_sd              =   2.4124919370176E-03
(PID.TID 0000.0001) %MON dynstat_uvel_del2            =   3.8851064226179E-06
(PID.TID 0000.0001) %MON dynstat_vvel_max             =   4.5118728932637E-02
(PID.TID 0000.0001) %MON dynstat_vvel_min             =  -2.9346608547414E-02
(PID.TID 0000.0001) %MON dynstat_vvel_mean            =   1.5369337180722E-05
(PID.TID 0000.0001) %MON dynstat_vvel_sd              =   1.2317436667193E-03
(PID.TID 0000.0001) %MON dynstat_vvel_del2            =   2.5613080544093E-06
(PID.TID 0000.0001) %MON dynstat_wvel_max             =   2.5681987844543E-03
(PID.TID 0000.0001) %MON dynstat_wvel_min             =  -2.5360670658585E-03
(PID.TID 0000.0001) %MON dynstat_wvel_mean            =   7.6746028280896E-09
(PID.TID 0000.0001) %MON dynstat_wvel_sd              =   4.5056735720288E-05
(PID.TID 0000.0001) %MON dynstat_wvel_del2            =   1.7359597760751E-07
(PID.TID 0000.0001) %MON dynstat_theta_max            =   1.2000000000000E+00
(PID.TID 0000.0001) %MON dynstat_theta_min            =  -1.0000000000000E+00
(PID.TID 0000.0001) %MON dynstat_theta_mean           =   5.6793488216860E-01
(PID.TID 0000.0001) %MON dynstat_theta_sd             =   8.6796666507460E-01
(PID.TID 0000.0001) %MON dynstat_theta_del2           =   7.9406494303199E-06
(PID.TID 0000.0001) %MON dynstat_salt_max             =   3.4700000000000E+01
(PID.TID 0000.0001) %MON dynstat_salt_min             =   3.4000000000000E+01
(PID.TID 0000.0001) %MON dynstat_salt_mean            =   3.4498787900026E+01
(PID.TID 0000.0001) %MON dynstat_salt_sd              =   2.7613149966055E-01
(PID.TID 0000.0001) %MON dynstat_salt_del2            =   3.1494463178332E-06
(PID.TID 0000.0001) %MON advcfl_uvel_max              =   8.0412604020511E-03
(PID.TID 0000.0001) %MON advcfl_vvel_max              =   4.5118728932637E-03
(PID.TID 0000.0001) %MON advcfl_wvel_max              =   1.2840993922271E-02
(PID.TID 0000.0001) %MON advcfl_W_hf_max              =   1.2840993922271E-02
(PID.TID 0000.0001) %MON pe_b_mean                    =  -8.2954409155886E-01
(PID.TID 0000.0001) %MON ke_max                       =   2.9520521473992E-03
(PID.TID 0000.0001) %MON ke_mean                      =   3.6110532791004E-06
(PID.TID 0000.0001) %MON ke_vol                       =   4.2724650908873E+12
(PID.TID 0000.0001) // =======================================================
(PID.TID 0000.0001) // End MONITOR dynamic field statistics
(PID.TID 0000.0001) // =======================================================
(PID.TID 0000.0001) // =======================================================
(PID.TID 0000.0001) // Begin OBCS MONITOR field statistics
(PID.TID 0000.0001) // =======================================================
(PID.TID 0000.0001) %MON obc_N_vVel_max               =   1.5029807044497E-05
(PID.TID 0000.0001) %MON obc_N_vVel_min               =   1.5029807044497E-05
(PID.TID 0000.0001) %MON obc_N_vVel_mean              =   1.5029807044497E-05
(PID.TID 0000.0001) %MON obc_N_vVel_sd                =   3.2594632982253E-12
(PID.TID 0000.0001) %MON obc_N_vVel_Int               =   9.9196726493678E+02
(PID.TID 0000.0001) // =======================================================
(PID.TID 0000.0001) // End OBCS MONITOR field statistics
(PID.TID 0000.0001) // =======================================================
 cg2d: Sum(rhs),rhsMax =   4.50787675147649E+00  2.99977678448862E+02
(PID.TID 0000.0001)      cg2d_init_res =   1.37340606469524E-05
(PID.TID 0000.0001)      cg2d_iters(min,last) =      -1      85
(PID.TID 0000.0001)      cg2d_last_res =   9.58497443672260E-12
(PID.TID 0000.0001) // =======================================================
(PID.TID 0000.0001) // Begin MONITOR dynamic field statistics
(PID.TID 0000.0001) // =======================================================
(PID.TID 0000.0001) %MON time_tsnumber                =                  1616
(PID.TID 0000.0001) %MON time_secondsf                =   1.6160000000000E+05
(PID.TID 0000.0001) %MON dynstat_eta_max              =   5.8084156373041E+00
(PID.TID 0000.0001) %MON dynstat_eta_min              =  -1.4198232810510E+01
(PID.TID 0000.0001) %MON dynstat_eta_mean             =  -2.5041896345213E+00
(PID.TID 0000.0001) %MON dynstat_eta_sd               =   4.9502564605376E+00
(PID.TID 0000.0001) %MON dynstat_eta_del2             =   2.0717847933617E-01
(PID.TID 0000.0001) %MON dynstat_uvel_max             =   1.8552504992636E-02
(PID.TID 0000.0001) %MON dynstat_uvel_min             =  -8.0581695009188E-02
(PID.TID 0000.0001) %MON dynstat_uvel_mean            =  -1.0123350810773E-07
(PID.TID 0000.0001) %MON dynstat_uvel_sd              =   2.4172262365959E-03
(PID.TID 0000.0001) %MON dynstat_uvel_del2            =   3.8942080934220E-06
(PID.TID 0000.0001) %MON dynstat_vvel_max             =   4.5158810803759E-02
(PID.TID 0000.0001) %MON dynstat_vvel_min             =  -2.9405810554342E-02
(PID.TID 0000.0001) %MON dynstat_vvel_mean            =   1.5369451791420E-05
(PID.TID 0000.0001) %MON dynstat_vvel_sd              =   1.2340069671625E-03
(PID.TID 0000.0001) %MON dynstat_vvel_del2            =   2.5660866050945E-06
(PID.TID 0000.0001) %MON dynstat_wvel_max             =   2.5708170251933E-03
(PID.TID 0000.0001) %MON dynstat_wvel_min             =  -2.5384822503482E-03
(PID.TID 0000.0001) %MON dynstat_wvel_mean            =   7.6703412916682E-09
(PID.TID 0000.0001) %MON dynstat_wvel_sd              =   4.5135427201985E-05
(PID.TID 0000.0001) %MON dynstat_wvel_del2            =   1.7387392007286E-07
(PID.TID 0000.0001) %MON dynstat_theta_max            =   1.2000000000000E+00
(PID.TID 0000.0001) %MON dynstat_theta_min            =  -1.0000000000000E+00
(PID.TID 0000.0001) %MON dynstat_theta_mean           =   5.6793265674773E-01
(PID.TID 0000.0001) %MON dynstat_theta_sd             =   8.6796556655498E-01
(PID.TID 0000.0001) %MON dynstat_theta_del2           =   7.9541535105081E-06
(PID.TID 0000.0001) %MON dynstat_salt_max             =   3.4700000000000E+01
(PID.TID 0000.0001) %MON dynstat_salt_min             =   3.4000000000000E+01
(PID.TID 0000.0001) %MON dynstat_salt_mean            =   3.4498787009238E+01
(PID.TID 0000.0001) %MON dynstat_salt_sd              =   2.7613108546646E-01
(PID.TID 0000.0001) %MON dynstat_salt_del2            =   3.1548155339205E-06
(PID.TID 0000.0001) %MON advcfl_uvel_max              =   8.0581695009188E-03
(PID.TID 0000.0001) %MON advcfl_vvel_max              =   4.5158810803759E-03
(PID.TID 0000.0001) %MON advcfl_wvel_max              =   1.2854085125966E-02
(PID.TID 0000.0001) %MON advcfl_W_hf_max              =   1.2854085125966E-02
(PID.TID 0000.0001) %MON pe_b_mean                    =  -8.2954253108875E-01
(PID.TID 0000.0001) %MON ke_max                       =   2.9632315638568E-03
(PID.TID 0000.0001) %MON ke_mean                      =   3.6250495738367E-06
(PID.TID 0000.0001) %MON ke_vol                       =   4.2724651021430E+12
(PID.TID 0000.0001) // =======================================================
(PID.TID 0000.0001) // End MONITOR dynamic field statistics
(PID.TID 0000.0001) // =======================================================
(PID.TID 0000.0001) // =======================================================
(PID.TID 0000.0001) // Begin OBCS MONITOR field statistics
(PID.TID 0000.0001) // =======================================================
(PID.TID 0000.0001) %MON obc_N_vVel_max               =   1.5030221130962E-05
(PID.TID 0000.0001) %MON obc_N_vVel_min               =   1.5030221130961E-05
(PID.TID 0000.0001) %MON obc_N_vVel_mean              =   1.5030221130962E-05
(PID.TID 0000.0001) %MON obc_N_vVel_sd                =  -4.2134512451920E-24
(PID.TID 0000.0001) %MON obc_N_vVel_Int               =   9.9199459464346E+02
(PID.TID 0000.0001) // =======================================================
(PID.TID 0000.0001) // End OBCS MONITOR field statistics
(PID.TID 0000.0001) // =======================================================
 cg2d: Sum(rhs),rhsMax =   4.50787198041049E+00  2.99977761919806E+02
(PID.TID 0000.0001)      cg2d_init_res =   1.37508711211801E-05
(PID.TID 0000.0001)      cg2d_iters(min,last) =      -1      85
(PID.TID 0000.0001)      cg2d_last_res =   9.58923696427999E-12
(PID.TID 0000.0001) // =======================================================
(PID.TID 0000.0001) // Begin MONITOR dynamic field statistics
(PID.TID 0000.0001) // =======================================================
(PID.TID 0000.0001) %MON time_tsnumber                =                  1617
(PID.TID 0000.0001) %MON time_secondsf                =   1.6170000000000E+05
(PID.TID 0000.0001) %MON dynstat_eta_max              =   5.8085334459473E+00
(PID.TID 0000.0001) %MON dynstat_eta_min              =  -1.4198262650072E+01
(PID.TID 0000.0001) %MON dynstat_eta_mean             =  -2.5041876809343E+00
(PID.TID 0000.0001) %MON dynstat_eta_sd               =   4.9502565823157E+00
(PID.TID 0000.0001) %MON dynstat_eta_del2             =   2.0717854912046E-01
(PID.TID 0000.0001) %MON dynstat_uvel_max             =   1.8589562265349E-02
(PID.TID 0000.0001) %MON dynstat_uvel_min             =  -8.0750917862401E-02
(PID.TID 0000.0001) %MON dynstat_uvel_mean            =  -1.0116347333960E-07
(PID.TID 0000.0001) %MON dynstat_uvel_sd              =   2.4219662344079E-03
(PID.TID 0000.0001) %MON dynstat_uvel_del2            =   3.9033275427990E-06
(PID.TID 0000.0001) %MON dynstat_vvel_max             =   4.5198827081912E-02
(PID.TID 0000.0001) %MON dynstat_vvel_min             =  -2.9465036637953E-02
(PID.TID 0000.0001) %MON dynstat_vvel_mean            =   1.5368855985860E-05
(PID.TID 0000.0001) %MON dynstat_vvel_sd              =   1.2362733843822E-03
(PID.TID 0000.0001) %MON dynstat_vvel_del2            =   2.5708712581025E-06
(PID.TID 0000.0001) %MON dynstat_wvel_max             =   2.5734309501378E-03
(PID.TID 0000.0001) %MON dynstat_wvel_min             =  -2.5408797106231E-03
(PID.TID 0000.0001) %MON dynstat_wvel_mean            =   7.6653042820509E-09
(PID.TID 0000.0001) %MON dynstat_wvel_sd              =   4.5212683460850E-05
(PID.TID 0000.0001) %MON dynstat_wvel_del2            =   1.7414832468023E-07
(PID.TID 0000.0001) %MON dynstat_theta_max            =   1.2000000000000E+00
(PID.TID 0000.0001) %MON dynstat_theta_min            =  -1.0000000000000E+00
(PID.TID 0000.0001) %MON dynstat_theta_mean           =   5.6793042781140E-01
(PID.TID 0000.0001) %MON dynstat_theta_sd             =   8.6796446664981E-01
(PID.TID 0000.0001) %MON dynstat_theta_del2           =   7.9676744782314E-06
(PID.TID 0000.0001) %MON dynstat_salt_max             =   3.4700000000000E+01
(PID.TID 0000.0001) %MON dynstat_salt_min             =   3.4000000000000E+01
(PID.TID 0000.0001) %MON dynstat_salt_mean            =   3.4498786117042E+01
(PID.TID 0000.0001) %MON dynstat_salt_sd              =   2.7613067079027E-01
(PID.TID 0000.0001) %MON dynstat_salt_del2            =   3.1601911557553E-06
(PID.TID 0000.0001) %MON advcfl_uvel_max              =   8.0750917862401E-03
(PID.TID 0000.0001) %MON advcfl_vvel_max              =   4.5198827081912E-03
(PID.TID 0000.0001) %MON advcfl_wvel_max              =   1.2867154750689E-02
(PID.TID 0000.0001) %MON advcfl_W_hf_max              =   1.2867154750689E-02
(PID.TID 0000.0001) %MON pe_b_mean                    =  -8.2954096014347E-01
(PID.TID 0000.0001) %MON ke_max                       =   2.9744368472259E-03
(PID.TID 0000.0001) %MON ke_mean                      =   3.6390903297081E-06
(PID.TID 0000.0001) %MON ke_vol                       =   4.2724651135709E+12
(PID.TID 0000.0001) // =======================================================
(PID.TID 0000.0001) // End MONITOR dynamic field statistics
(PID.TID 0000.0001) // =======================================================
(PID.TID 0000.0001) // =======================================================
(PID.TID 0000.0001) // Begin OBCS MONITOR field statistics
(PID.TID 0000.0001) // =======================================================
(PID.TID 0000.0001) %MON obc_N_vVel_max               =   1.5030013579093E-05
(PID.TID 0000.0001) %MON obc_N_vVel_min               =   1.5030013579093E-05
(PID.TID 0000.0001) %MON obc_N_vVel_mean              =   1.5030013579093E-05
(PID.TID 0000.0001) %MON obc_N_vVel_sd                =   1.5997156060019E-12
(PID.TID 0000.0001) %MON obc_N_vVel_Int               =   9.9198089622012E+02
(PID.TID 0000.0001) // =======================================================
(PID.TID 0000.0001) // End OBCS MONITOR field statistics
(PID.TID 0000.0001) // =======================================================
 cg2d: Sum(rhs),rhsMax =   4.50786715457518E+00  2.99977845395017E+02
(PID.TID 0000.0001)      cg2d_init_res =   1.37676454061128E-05
(PID.TID 0000.0001)      cg2d_iters(min,last) =      -1      85
(PID.TID 0000.0001)      cg2d_last_res =   9.59360455265811E-12
(PID.TID 0000.0001) // =======================================================
(PID.TID 0000.0001) // Begin MONITOR dynamic field statistics
(PID.TID 0000.0001) // =======================================================
(PID.TID 0000.0001) %MON time_tsnumber                =                  1618
(PID.TID 0000.0001) %MON time_secondsf                =   1.6180000000000E+05
(PID.TID 0000.0001) %MON dynstat_eta_max              =   5.8086515263043E+00
(PID.TID 0000.0001) %MON dynstat_eta_min              =  -1.4198292486429E+01
(PID.TID 0000.0001) %MON dynstat_eta_mean             =  -2.5041856969564E+00
(PID.TID 0000.0001) %MON dynstat_eta_sd               =   4.9502566945333E+00
(PID.TID 0000.0001) %MON dynstat_eta_del2             =   2.0717861899117E-01
(PID.TID 0000.0001) %MON dynstat_uvel_max             =   1.8626669670734E-02
(PID.TID 0000.0001) %MON dynstat_uvel_min             =  -8.0920271856364E-02
(PID.TID 0000.0001) %MON dynstat_uvel_mean            =  -1.0109514866818E-07
(PID.TID 0000.0001) %MON dynstat_uvel_sd              =   2.4267119236015E-03
(PID.TID 0000.0001) %MON dynstat_uvel_del2            =   3.9124647761820E-06
(PID.TID 0000.0001) %MON dynstat_vvel_max             =   4.5238777621841E-02
(PID.TID 0000.0001) %MON dynstat_vvel_min             =  -2.9524285952357E-02
(PID.TID 0000.0001) %MON dynstat_vvel_mean            =   1.5367583172629E-05
(PID.TID 0000.0001) %MON dynstat_vvel_sd              =   1.2385428938987E-03
(PID.TID 0000.0001) %MON dynstat_vvel_del2            =   2.5756619228596E-06
(PID.TID 0000.0001) %MON dynstat_wvel_max             =   2.5760405535286E-03
(PID.TID 0000.0001) %MON dynstat_wvel_min             =  -2.5432592079667E-03
(PID.TID 0000.0001) %MON dynstat_wvel_mean            =   7.6596546718817E-09
(PID.TID 0000.0001) %MON dynstat_wvel_sd              =   4.5288386585603E-05
(PID.TID 0000.0001) %MON dynstat_wvel_del2            =   1.7441841920827E-07
(PID.TID 0000.0001) %MON dynstat_theta_max            =   1.2000000000000E+00
(PID.TID 0000.0001) %MON dynstat_theta_min            =  -1.0000000000000E+00
(PID.TID 0000.0001) %MON dynstat_theta_mean           =   5.6792819535803E-01
(PID.TID 0000.0001) %MON dynstat_theta_sd             =   8.6796336535929E-01
(PID.TID 0000.0001) %MON dynstat_theta_del2           =   7.9812125259270E-06
(PID.TID 0000.0001) %MON dynstat_salt_max             =   3.4700000000000E+01
(PID.TID 0000.0001) %MON dynstat_salt_min             =   3.4000000000000E+01
(PID.TID 0000.0001) %MON dynstat_salt_mean            =   3.4498785223437E+01
(PID.TID 0000.0001) %MON dynstat_salt_sd              =   2.7613025563227E-01
(PID.TID 0000.0001) %MON dynstat_salt_del2            =   3.1655732401088E-06
(PID.TID 0000.0001) %MON advcfl_uvel_max              =   8.0920271856364E-03
(PID.TID 0000.0001) %MON advcfl_vvel_max              =   4.5238777621841E-03
(PID.TID 0000.0001) %MON advcfl_wvel_max              =   1.2880202767643E-02
(PID.TID 0000.0001) %MON advcfl_W_hf_max              =   1.2880202767643E-02
(PID.TID 0000.0001) %MON pe_b_mean                    =  -8.2953937854684E-01
(PID.TID 0000.0001) %MON ke_max                       =   2.9856679849081E-03
(PID.TID 0000.0001) %MON ke_mean                      =   3.6531756012254E-06
(PID.TID 0000.0001) %MON ke_vol                       =   4.2724651251752E+12
(PID.TID 0000.0001) // =======================================================
(PID.TID 0000.0001) // End MONITOR dynamic field statistics
(PID.TID 0000.0001) // =======================================================
(PID.TID 0000.0001) // =======================================================
(PID.TID 0000.0001) // Begin OBCS MONITOR field statistics
(PID.TID 0000.0001) // =======================================================
(PID.TID 0000.0001) %MON obc_N_vVel_max               =   1.5029203785118E-05
(PID.TID 0000.0001) %MON obc_N_vVel_min               =   1.5029203785118E-05
(PID.TID 0000.0001) %MON obc_N_vVel_mean              =   1.5029203785118E-05
(PID.TID 0000.0001) %MON obc_N_vVel_sd                =  -9.5901252267867E-24
(PID.TID 0000.0001) %MON obc_N_vVel_Int               =   9.9192744981779E+02
(PID.TID 0000.0001) // =======================================================
(PID.TID 0000.0001) // End OBCS MONITOR field statistics
(PID.TID 0000.0001) // =======================================================
 cg2d: Sum(rhs),rhsMax =   4.50786227280189E+00  2.99977928873625E+02
(PID.TID 0000.0001)      cg2d_init_res =   1.37844102616995E-05
(PID.TID 0000.0001)      cg2d_iters(min,last) =      -1      85
(PID.TID 0000.0001)      cg2d_last_res =   9.59818061696181E-12
(PID.TID 0000.0001) // =======================================================
(PID.TID 0000.0001) // Begin MONITOR dynamic field statistics
(PID.TID 0000.0001) // =======================================================
(PID.TID 0000.0001) %MON time_tsnumber                =                  1619
(PID.TID 0000.0001) %MON time_secondsf                =   1.6190000000000E+05
(PID.TID 0000.0001) %MON dynstat_eta_max              =   5.8087698797805E+00
(PID.TID 0000.0001) %MON dynstat_eta_min              =  -1.4198322319118E+01
(PID.TID 0000.0001) %MON dynstat_eta_mean             =  -2.5041836819309E+00
(PID.TID 0000.0001) %MON dynstat_eta_sd               =   4.9502567970181E+00
(PID.TID 0000.0001) %MON dynstat_eta_del2             =   2.0717868894839E-01
(PID.TID 0000.0001) %MON dynstat_uvel_max             =   1.8663827240649E-02
(PID.TID 0000.0001) %MON dynstat_uvel_min             =  -8.1089756262049E-02
(PID.TID 0000.0001) %MON dynstat_uvel_mean            =  -1.0102931349835E-07
(PID.TID 0000.0001) %MON dynstat_uvel_sd              =   2.4314632972638E-03
(PID.TID 0000.0001) %MON dynstat_uvel_del2            =   3.9216197987281E-06
(PID.TID 0000.0001) %MON dynstat_vvel_max             =   4.5278662282529E-02
(PID.TID 0000.0001) %MON dynstat_vvel_min             =  -2.9583557641347E-02
(PID.TID 0000.0001) %MON dynstat_vvel_mean            =   1.5365682085238E-05
(PID.TID 0000.0001) %MON dynstat_vvel_sd              =   1.2408154880395E-03
(PID.TID 0000.0001) %MON dynstat_vvel_del2            =   2.5804585802253E-06
(PID.TID 0000.0001) %MON dynstat_wvel_max             =   2.5786458296823E-03
(PID.TID 0000.0001) %MON dynstat_wvel_min             =  -2.5456205046215E-03
(PID.TID 0000.0001) %MON dynstat_wvel_mean            =   7.6535685850795E-09
(PID.TID 0000.0001) %MON dynstat_wvel_sd              =   4.5362493649213E-05
(PID.TID 0000.0001) %MON dynstat_wvel_del2            =   1.7468362603834E-07
(PID.TID 0000.0001) %MON dynstat_theta_max            =   1.2000000000000E+00
(PID.TID 0000.0001) %MON dynstat_theta_min            =  -1.0000000000000E+00
(PID.TID 0000.0001) %MON dynstat_theta_mean           =   5.6792595938581E-01
(PID.TID 0000.0001) %MON dynstat_theta_sd             =   8.6796226268318E-01
(PID.TID 0000.0001) %MON dynstat_theta_del2           =   7.9947678545803E-06
(PID.TID 0000.0001) %MON dynstat_salt_max             =   3.4700000000000E+01
(PID.TID 0000.0001) %MON dynstat_salt_min             =   3.4000000000000E+01
(PID.TID 0000.0001) %MON dynstat_salt_mean            =   3.4498784328423E+01
(PID.TID 0000.0001) %MON dynstat_salt_sd              =   2.7612983999254E-01
(PID.TID 0000.0001) %MON dynstat_salt_del2            =   3.1709618032610E-06
(PID.TID 0000.0001) %MON advcfl_uvel_max              =   8.1089756262049E-03
(PID.TID 0000.0001) %MON advcfl_vvel_max              =   4.5278662282529E-03
(PID.TID 0000.0001) %MON advcfl_wvel_max              =   1.2893229148411E-02
(PID.TID 0000.0001) %MON advcfl_W_hf_max              =   1.2893229148411E-02
(PID.TID 0000.0001) %MON pe_b_mean                    =  -8.2953778613601E-01
(PID.TID 0000.0001) %MON ke_max                       =   2.9969249644171E-03
(PID.TID 0000.0001) %MON ke_mean                      =   3.6673054636175E-06
(PID.TID 0000.0001) %MON ke_vol                       =   4.2724651369601E+12
(PID.TID 0000.0001) // =======================================================
(PID.TID 0000.0001) // End MONITOR dynamic field statistics
(PID.TID 0000.0001) // =======================================================
(PID.TID 0000.0001) // =======================================================
(PID.TID 0000.0001) // Begin OBCS MONITOR field statistics
(PID.TID 0000.0001) // =======================================================
(PID.TID 0000.0001) %MON obc_N_vVel_max               =   1.5027824851047E-05
(PID.TID 0000.0001) %MON obc_N_vVel_min               =   1.5027824851046E-05
(PID.TID 0000.0001) %MON obc_N_vVel_mean              =   1.5027824851046E-05
(PID.TID 0000.0001) %MON obc_N_vVel_sd                =   4.0610236964066E-12
(PID.TID 0000.0001) %MON obc_N_vVel_Int               =   9.9183644016905E+02
(PID.TID 0000.0001) // =======================================================
(PID.TID 0000.0001) // End OBCS MONITOR field statistics
(PID.TID 0000.0001) // =======================================================
 cg2d: Sum(rhs),rhsMax =   4.50785733399661E+00  2.99978012355866E+02
(PID.TID 0000.0001)      cg2d_init_res =   1.38011887380708E-05
(PID.TID 0000.0001)      cg2d_iters(min,last) =      -1      85
(PID.TID 0000.0001)      cg2d_last_res =   9.60306107631794E-12
(PID.TID 0000.0001) // =======================================================
(PID.TID 0000.0001) // Begin MONITOR dynamic field statistics
(PID.TID 0000.0001) // =======================================================
(PID.TID 0000.0001) %MON time_tsnumber                =                  1620
(PID.TID 0000.0001) %MON time_secondsf                =   1.6200000000000E+05
(PID.TID 0000.0001) %MON dynstat_eta_max              =   5.8088885076524E+00
(PID.TID 0000.0001) %MON dynstat_eta_min              =  -1.4198352147758E+01
(PID.TID 0000.0001) %MON dynstat_eta_mean             =  -2.5041816352521E+00
(PID.TID 0000.0001) %MON dynstat_eta_sd               =   4.9502568896268E+00
(PID.TID 0000.0001) %MON dynstat_eta_del2             =   2.0717875899223E-01
(PID.TID 0000.0001) %MON dynstat_uvel_max             =   1.8701035007421E-02
(PID.TID 0000.0001) %MON dynstat_uvel_min             =  -8.1259370345034E-02
(PID.TID 0000.0001) %MON dynstat_uvel_mean            =  -1.0096668836408E-07
(PID.TID 0000.0001) %MON dynstat_uvel_sd              =   2.4362203484209E-03
(PID.TID 0000.0001) %MON dynstat_uvel_del2            =   3.9307926153777E-06
(PID.TID 0000.0001) %MON dynstat_vvel_max             =   4.5318480926893E-02
(PID.TID 0000.0001) %MON dynstat_vvel_min             =  -2.9642850838409E-02
(PID.TID 0000.0001) %MON dynstat_vvel_mean            =   1.5363215504031E-05
(PID.TID 0000.0001) %MON dynstat_vvel_sd              =   1.2430911761790E-03
(PID.TID 0000.0001) %MON dynstat_vvel_del2            =   2.5852612849185E-06
(PID.TID 0000.0001) %MON dynstat_wvel_max             =   2.5812467730226E-03
(PID.TID 0000.0001) %MON dynstat_wvel_min             =  -2.5479633641250E-03
(PID.TID 0000.0001) %MON dynstat_wvel_mean            =   7.6472293266853E-09
(PID.TID 0000.0001) %MON dynstat_wvel_sd              =   4.5435038340735E-05
(PID.TID 0000.0001) %MON dynstat_wvel_del2            =   1.7494359444512E-07
(PID.TID 0000.0001) %MON dynstat_theta_max            =   1.2000000000000E+00
(PID.TID 0000.0001) %MON dynstat_theta_min            =  -1.0000000000000E+00
(PID.TID 0000.0001) %MON dynstat_theta_mean           =   5.6792371989268E-01
(PID.TID 0000.0001) %MON dynstat_theta_sd             =   8.6796115862281E-01
(PID.TID 0000.0001) %MON dynstat_theta_del2           =   8.0083404043785E-06
(PID.TID 0000.0001) %MON dynstat_salt_max             =   3.4700000000000E+01
(PID.TID 0000.0001) %MON dynstat_salt_min             =   3.4000000000000E+01
(PID.TID 0000.0001) %MON dynstat_salt_mean            =   3.4498783431999E+01
(PID.TID 0000.0001) %MON dynstat_salt_sd              =   2.7612942387176E-01
(PID.TID 0000.0001) %MON dynstat_salt_del2            =   3.1763568603653E-06
(PID.TID 0000.0001) %MON advcfl_uvel_max              =   8.1259370345034E-03
(PID.TID 0000.0001) %MON advcfl_vvel_max              =   4.5318480926893E-03
(PID.TID 0000.0001) %MON advcfl_wvel_max              =   1.2906233865113E-02
(PID.TID 0000.0001) %MON advcfl_W_hf_max              =   1.2906233865113E-02
(PID.TID 0000.0001) %MON pe_b_mean                    =  -8.2953618276489E-01
(PID.TID 0000.0001) %MON ke_max                       =   3.0082077733678E-03
(PID.TID 0000.0001) %MON ke_mean                      =   3.6814800132959E-06
(PID.TID 0000.0001) %MON ke_vol                       =   4.2724651489293E+12
(PID.TID 0000.0001) // =======================================================
(PID.TID 0000.0001) // End MONITOR dynamic field statistics
(PID.TID 0000.0001) // =======================================================
(PID.TID 0000.0001) // =======================================================
(PID.TID 0000.0001) // Begin OBCS MONITOR field statistics
(PID.TID 0000.0001) // =======================================================
(PID.TID 0000.0001) %MON obc_N_vVel_max               =   1.5025922787142E-05
(PID.TID 0000.0001) %MON obc_N_vVel_min               =   1.5025922787142E-05
(PID.TID 0000.0001) %MON obc_N_vVel_mean              =   1.5025922787142E-05
(PID.TID 0000.0001) %MON obc_N_vVel_sd                =  -1.5251142543946E-23
(PID.TID 0000.0001) %MON obc_N_vVel_Int               =   9.9171090395140E+02
(PID.TID 0000.0001) // =======================================================
(PID.TID 0000.0001) // End OBCS MONITOR field statistics
(PID.TID 0000.0001) // =======================================================
 cg2d: Sum(rhs),rhsMax =   4.50785233716430E+00  2.99978095843074E+02
(PID.TID 0000.0001)      cg2d_init_res =   1.38180086330475E-05
(PID.TID 0000.0001)      cg2d_iters(min,last) =      -1      85
(PID.TID 0000.0001)      cg2d_last_res =   9.60830278845019E-12
(PID.TID 0000.0001) // =======================================================
(PID.TID 0000.0001) // Begin MONITOR dynamic field statistics
(PID.TID 0000.0001) // =======================================================
(PID.TID 0000.0001) %MON time_tsnumber                =                  1621
(PID.TID 0000.0001) %MON time_secondsf                =   1.6210000000000E+05
(PID.TID 0000.0001) %MON dynstat_eta_max              =   5.8090074110353E+00
(PID.TID 0000.0001) %MON dynstat_eta_min              =  -1.4198381972047E+01
(PID.TID 0000.0001) %MON dynstat_eta_mean             =  -2.5041795563783E+00
(PID.TID 0000.0001) %MON dynstat_eta_sd               =   4.9502569722438E+00
(PID.TID 0000.0001) %MON dynstat_eta_del2             =   2.0717882912276E-01
(PID.TID 0000.0001) %MON dynstat_uvel_max             =   1.8738293003601E-02
(PID.TID 0000.0001) %MON dynstat_uvel_min             =  -8.1429113365076E-02
(PID.TID 0000.0001) %MON dynstat_uvel_mean            =  -1.0090791866586E-07
(PID.TID 0000.0001) %MON dynstat_uvel_sd              =   2.4409830700367E-03
(PID.TID 0000.0001) %MON dynstat_uvel_del2            =   3.9399832307938E-06
(PID.TID 0000.0001) %MON dynstat_vvel_max             =   4.5358233421449E-02
(PID.TID 0000.0001) %MON dynstat_vvel_min             =  -2.9702164666382E-02
(PID.TID 0000.0001) %MON dynstat_vvel_mean            =   1.5360258657497E-05
(PID.TID 0000.0001) %MON dynstat_vvel_sd              =   1.2453699841860E-03
(PID.TID 0000.0001) %MON dynstat_vvel_del2            =   2.5900701645048E-06
(PID.TID 0000.0001) %MON dynstat_wvel_max             =   2.5838433780509E-03
(PID.TID 0000.0001) %MON dynstat_wvel_min             =  -2.5502875506117E-03
(PID.TID 0000.0001) %MON dynstat_wvel_mean            =   7.6408253090554E-09
(PID.TID 0000.0001) %MON dynstat_wvel_sd              =   4.5506129122720E-05
(PID.TID 0000.0001) %MON dynstat_wvel_del2            =   1.7519822325720E-07
(PID.TID 0000.0001) %MON dynstat_theta_max            =   1.2000000000000E+00
(PID.TID 0000.0001) %MON dynstat_theta_min            =  -1.0000000000000E+00
(PID.TID 0000.0001) %MON dynstat_theta_mean           =   5.6792147687634E-01
(PID.TID 0000.0001) %MON dynstat_theta_sd             =   8.6796005317932E-01
(PID.TID 0000.0001) %MON dynstat_theta_del2           =   8.0219298446201E-06
(PID.TID 0000.0001) %MON dynstat_salt_max             =   3.4700000000000E+01
(PID.TID 0000.0001) %MON dynstat_salt_min             =   3.4000000000000E+01
(PID.TID 0000.0001) %MON dynstat_salt_mean            =   3.4498782534162E+01
(PID.TID 0000.0001) %MON dynstat_salt_sd              =   2.7612900727045E-01
(PID.TID 0000.0001) %MON dynstat_salt_del2            =   3.1817583261804E-06
(PID.TID 0000.0001) %MON advcfl_uvel_max              =   8.1429113365076E-03
(PID.TID 0000.0001) %MON advcfl_vvel_max              =   4.5358233421449E-03
(PID.TID 0000.0001) %MON advcfl_wvel_max              =   1.2919216890254E-02
(PID.TID 0000.0001) %MON advcfl_W_hf_max              =   1.2919216890254E-02
(PID.TID 0000.0001) %MON pe_b_mean                    =  -8.2953456830718E-01
(PID.TID 0000.0001) %MON ke_max                       =   3.0195163994680E-03
(PID.TID 0000.0001) %MON ke_mean                      =   3.6956993673319E-06
(PID.TID 0000.0001) %MON ke_vol                       =   4.2724651610866E+12
(PID.TID 0000.0001) // =======================================================
(PID.TID 0000.0001) // End MONITOR dynamic field statistics
(PID.TID 0000.0001) // =======================================================
(PID.TID 0000.0001) // =======================================================
(PID.TID 0000.0001) // Begin OBCS MONITOR field statistics
(PID.TID 0000.0001) // =======================================================
(PID.TID 0000.0001) %MON obc_N_vVel_max               =   1.5023555174053E-05
(PID.TID 0000.0001) %MON obc_N_vVel_min               =   1.5023555174053E-05
(PID.TID 0000.0001) %MON obc_N_vVel_mean              =   1.5023555174053E-05
(PID.TID 0000.0001) %MON obc_N_vVel_sd                =  -1.2562805553149E-23
(PID.TID 0000.0001) %MON obc_N_vVel_Int               =   9.9155464148753E+02
(PID.TID 0000.0001) // =======================================================
(PID.TID 0000.0001) // End OBCS MONITOR field statistics
(PID.TID 0000.0001) // =======================================================
 cg2d: Sum(rhs),rhsMax =   4.50784728142958E+00  2.99978179337621E+02
(PID.TID 0000.0001)      cg2d_init_res =   1.38349017916810E-05
(PID.TID 0000.0001)      cg2d_iters(min,last) =      -1      85
(PID.TID 0000.0001)      cg2d_last_res =   9.61400490342087E-12
(PID.TID 0000.0001) // =======================================================
(PID.TID 0000.0001) // Begin MONITOR dynamic field statistics
(PID.TID 0000.0001) // =======================================================
(PID.TID 0000.0001) %MON time_tsnumber                =                  1622
(PID.TID 0000.0001) %MON time_secondsf                =   1.6220000000000E+05
(PID.TID 0000.0001) %MON dynstat_eta_max              =   5.8091265908705E+00
(PID.TID 0000.0001) %MON dynstat_eta_min              =  -1.4198411791767E+01
(PID.TID 0000.0001) %MON dynstat_eta_mean             =  -2.5041774448431E+00
(PID.TID 0000.0001) %MON dynstat_eta_sd               =   4.9502570447876E+00
(PID.TID 0000.0001) %MON dynstat_eta_del2             =   2.0717889934020E-01
(PID.TID 0000.0001) %MON dynstat_uvel_max             =   1.8775601262474E-02
(PID.TID 0000.0001) %MON dynstat_uvel_min             =  -8.1598984576011E-02
(PID.TID 0000.0001) %MON dynstat_uvel_mean            =  -1.0085356523700E-07
(PID.TID 0000.0001) %MON dynstat_uvel_sd              =   2.4457514550115E-03
(PID.TID 0000.0001) %MON dynstat_uvel_del2            =   3.9491916494869E-06
(PID.TID 0000.0001) %MON dynstat_vvel_max             =   4.5397919635793E-02
(PID.TID 0000.0001) %MON dynstat_vvel_min             =  -2.9761498241564E-02
(PID.TID 0000.0001) %MON dynstat_vvel_mean            =   1.5356897363311E-05
(PID.TID 0000.0001) %MON dynstat_vvel_sd              =   1.2476519531238E-03
(PID.TID 0000.0001) %MON dynstat_vvel_del2            =   2.5948854152517E-06
(PID.TID 0000.0001) %MON dynstat_wvel_max             =   2.5864356393267E-03
(PID.TID 0000.0001) %MON dynstat_wvel_min             =  -2.5525928278820E-03
(PID.TID 0000.0001) %MON dynstat_wvel_mean            =   7.6345438291903E-09
(PID.TID 0000.0001) %MON dynstat_wvel_sd              =   4.5575943938383E-05
(PID.TID 0000.0001) %MON dynstat_wvel_del2            =   1.7544767180935E-07
(PID.TID 0000.0001) %MON dynstat_theta_max            =   1.2000000000000E+00
(PID.TID 0000.0001) %MON dynstat_theta_min            =  -1.0000000000000E+00
(PID.TID 0000.0001) %MON dynstat_theta_mean           =   5.6791923033424E-01
(PID.TID 0000.0001) %MON dynstat_theta_sd             =   8.6795894635444E-01
(PID.TID 0000.0001) %MON dynstat_theta_del2           =   8.0355360436610E-06
(PID.TID 0000.0001) %MON dynstat_salt_max             =   3.4700000000000E+01
(PID.TID 0000.0001) %MON dynstat_salt_min             =   3.4000000000000E+01
(PID.TID 0000.0001) %MON dynstat_salt_mean            =   3.4498781634914E+01
(PID.TID 0000.0001) %MON dynstat_salt_sd              =   2.7612859018924E-01
(PID.TID 0000.0001) %MON dynstat_salt_del2            =   3.1871661260048E-06
(PID.TID 0000.0001) %MON advcfl_uvel_max              =   8.1598984576011E-03
(PID.TID 0000.0001) %MON advcfl_vvel_max              =   4.5397919635793E-03
(PID.TID 0000.0001) %MON advcfl_wvel_max              =   1.2932178196633E-02
(PID.TID 0000.0001) %MON advcfl_W_hf_max              =   1.2932178196633E-02
(PID.TID 0000.0001) %MON pe_b_mean                    =  -8.2953294265873E-01
(PID.TID 0000.0001) %MON ke_max                       =   3.0308508304941E-03
(PID.TID 0000.0001) %MON ke_mean                      =   3.7099636619910E-06
(PID.TID 0000.0001) %MON ke_vol                       =   4.2724651734351E+12
(PID.TID 0000.0001) // =======================================================
(PID.TID 0000.0001) // End MONITOR dynamic field statistics
(PID.TID 0000.0001) // =======================================================
(PID.TID 0000.0001) // =======================================================
(PID.TID 0000.0001) // Begin OBCS MONITOR field statistics
(PID.TID 0000.0001) // =======================================================
(PID.TID 0000.0001) %MON obc_N_vVel_max               =   1.5020789823276E-05
(PID.TID 0000.0001) %MON obc_N_vVel_min               =   1.5020789823276E-05
(PID.TID 0000.0001) %MON obc_N_vVel_mean              =   1.5020789823276E-05
(PID.TID 0000.0001) %MON obc_N_vVel_sd                =   8.8061445835761E-13
(PID.TID 0000.0001) %MON obc_N_vVel_Int               =   9.9137212833624E+02
(PID.TID 0000.0001) // =======================================================
(PID.TID 0000.0001) // End OBCS MONITOR field statistics
(PID.TID 0000.0001) // =======================================================
 cg2d: Sum(rhs),rhsMax =   4.50784216605413E+00  2.99978262842868E+02
(PID.TID 0000.0001)      cg2d_init_res =   1.38518822323368E-05
(PID.TID 0000.0001)      cg2d_iters(min,last) =      -1      85
(PID.TID 0000.0001)      cg2d_last_res =   9.62022045378762E-12
(PID.TID 0000.0001) // =======================================================
(PID.TID 0000.0001) // Begin MONITOR dynamic field statistics
(PID.TID 0000.0001) // =======================================================
(PID.TID 0000.0001) %MON time_tsnumber                =                  1623
(PID.TID 0000.0001) %MON time_secondsf                =   1.6230000000000E+05
(PID.TID 0000.0001) %MON dynstat_eta_max              =   5.8092460478963E+00
(PID.TID 0000.0001) %MON dynstat_eta_min              =  -1.4198441606782E+01
(PID.TID 0000.0001) %MON dynstat_eta_mean             =  -2.5041753002643E+00
(PID.TID 0000.0001) %MON dynstat_eta_sd               =   4.9502571072063E+00
(PID.TID 0000.0001) %MON dynstat_eta_del2             =   2.0717896964449E-01
(PID.TID 0000.0001) %MON dynstat_uvel_max             =   1.8812959817916E-02
(PID.TID 0000.0001) %MON dynstat_uvel_min             =  -8.1768983225349E-02
(PID.TID 0000.0001) %MON dynstat_uvel_mean            =  -1.0080408036743E-07
(PID.TID 0000.0001) %MON dynstat_uvel_sd              =   2.4505254961830E-03
(PID.TID 0000.0001) %MON dynstat_uvel_del2            =   3.9584178760364E-06
(PID.TID 0000.0001) %MON dynstat_vvel_max             =   4.5437539442367E-02
(PID.TID 0000.0001) %MON dynstat_vvel_min             =  -2.9820850674280E-02
(PID.TID 0000.0001) %MON dynstat_vvel_mean            =   1.5353225894387E-05
(PID.TID 0000.0001) %MON dynstat_vvel_sd              =   1.2499371371653E-03
(PID.TID 0000.0001) %MON dynstat_vvel_del2            =   2.5997072941314E-06
(PID.TID 0000.0001) %MON dynstat_wvel_max             =   2.5890235515022E-03
(PID.TID 0000.0001) %MON dynstat_wvel_min             =  -2.5548789591374E-03
(PID.TID 0000.0001) %MON dynstat_wvel_mean            =   7.6285681532301E-09
(PID.TID 0000.0001) %MON dynstat_wvel_sd              =   4.5644721675775E-05
(PID.TID 0000.0001) %MON dynstat_wvel_del2            =   1.7569235854295E-07
(PID.TID 0000.0001) %MON dynstat_theta_max            =   1.2000000000000E+00
(PID.TID 0000.0001) %MON dynstat_theta_min            =  -1.0000000000000E+00
(PID.TID 0000.0001) %MON dynstat_theta_mean           =   5.6791698026353E-01
(PID.TID 0000.0001) %MON dynstat_theta_sd             =   8.6795783814952E-01
(PID.TID 0000.0001) %MON dynstat_theta_del2           =   8.0491588431699E-06
(PID.TID 0000.0001) %MON dynstat_salt_max             =   3.4700000000000E+01
(PID.TID 0000.0001) %MON dynstat_salt_min             =   3.4000000000000E+01
(PID.TID 0000.0001) %MON dynstat_salt_mean            =   3.4498780734252E+01
(PID.TID 0000.0001) %MON dynstat_salt_sd              =   2.7612817262903E-01
(PID.TID 0000.0001) %MON dynstat_salt_del2            =   3.1925802528242E-06
(PID.TID 0000.0001) %MON advcfl_uvel_max              =   8.1768983225349E-03
(PID.TID 0000.0001) %MON advcfl_vvel_max              =   4.5437539442367E-03
(PID.TID 0000.0001) %MON advcfl_wvel_max              =   1.2945117757511E-02
(PID.TID 0000.0001) %MON advcfl_W_hf_max              =   1.2945117757511E-02
(PID.TID 0000.0001) %MON pe_b_mean                    =  -8.2953130573948E-01
(PID.TID 0000.0001) %MON ke_max                       =   3.0422110542451E-03
(PID.TID 0000.0001) %MON ke_mean                      =   3.7242730502664E-06
(PID.TID 0000.0001) %MON ke_vol                       =   4.2724651859776E+12
(PID.TID 0000.0001) // =======================================================
(PID.TID 0000.0001) // End MONITOR dynamic field statistics
(PID.TID 0000.0001) // =======================================================
(PID.TID 0000.0001) // =======================================================
(PID.TID 0000.0001) // Begin OBCS MONITOR field statistics
(PID.TID 0000.0001) // =======================================================
(PID.TID 0000.0001) %MON obc_N_vVel_max               =   1.5017702985560E-05
(PID.TID 0000.0001) %MON obc_N_vVel_min               =   1.5017702985559E-05
(PID.TID 0000.0001) %MON obc_N_vVel_mean              =   1.5017702985560E-05
(PID.TID 0000.0001) %MON obc_N_vVel_sd                =  -6.0487582292940E-24
(PID.TID 0000.0001) %MON obc_N_vVel_Int               =   9.9116839704694E+02
(PID.TID 0000.0001) // =======================================================
(PID.TID 0000.0001) // End OBCS MONITOR field statistics
(PID.TID 0000.0001) // =======================================================
 cg2d: Sum(rhs),rhsMax =   4.50783699045380E+00  2.99978346363043E+02
(PID.TID 0000.0001)      cg2d_init_res =   1.38689810345781E-05
(PID.TID 0000.0001)      cg2d_iters(min,last) =      -1      85
(PID.TID 0000.0001)      cg2d_last_res =   9.62701247972407E-12
(PID.TID 0000.0001) // =======================================================
(PID.TID 0000.0001) // Begin MONITOR dynamic field statistics
(PID.TID 0000.0001) // =======================================================
(PID.TID 0000.0001) %MON time_tsnumber                =                  1624
(PID.TID 0000.0001) %MON time_secondsf                =   1.6240000000000E+05
(PID.TID 0000.0001) %MON dynstat_eta_max              =   5.8093657826448E+00
(PID.TID 0000.0001) %MON dynstat_eta_min              =  -1.4198471417063E+01
(PID.TID 0000.0001) %MON dynstat_eta_mean             =  -2.5041731223528E+00
(PID.TID 0000.0001) %MON dynstat_eta_sd               =   4.9502571594860E+00
(PID.TID 0000.0001) %MON dynstat_eta_del2             =   2.0717904003573E-01
(PID.TID 0000.0001) %MON dynstat_uvel_max             =   1.8850368704570E-02
(PID.TID 0000.0001) %MON dynstat_uvel_min             =  -8.1939108554069E-02
(PID.TID 0000.0001) %MON dynstat_uvel_mean            =  -1.0075980290365E-07
(PID.TID 0000.0001) %MON dynstat_uvel_sd              =   2.4553051863274E-03
(PID.TID 0000.0001) %MON dynstat_uvel_del2            =   3.9676619151076E-06
(PID.TID 0000.0001) %MON dynstat_vvel_max             =   4.5477092715873E-02
(PID.TID 0000.0001) %MON dynstat_vvel_min             =  -2.9880221066243E-02
(PID.TID 0000.0001) %MON dynstat_vvel_mean            =   1.5349344699094E-05
(PID.TID 0000.0001) %MON dynstat_vvel_sd              =   1.2522256009449E-03
(PID.TID 0000.0001) %MON dynstat_vvel_del2            =   2.6045361076862E-06
(PID.TID 0000.0001) %MON dynstat_wvel_max             =   2.5916071092868E-03
(PID.TID 0000.0001) %MON dynstat_wvel_min             =  -2.5571457082010E-03
(PID.TID 0000.0001) %MON dynstat_wvel_mean            =   7.6230714523527E-09
(PID.TID 0000.0001) %MON dynstat_wvel_sd              =   4.5712750722168E-05
(PID.TID 0000.0001) %MON dynstat_wvel_del2            =   1.7593294544973E-07
(PID.TID 0000.0001) %MON dynstat_theta_max            =   1.2000000000000E+00
(PID.TID 0000.0001) %MON dynstat_theta_min            =  -1.0000000000000E+00
(PID.TID 0000.0001) %MON dynstat_theta_mean           =   5.6791472666128E-01
(PID.TID 0000.0001) %MON dynstat_theta_sd             =   8.6795672856627E-01
(PID.TID 0000.0001) %MON dynstat_theta_del2           =   8.0627978396294E-06
(PID.TID 0000.0001) %MON dynstat_salt_max             =   3.4700000000000E+01
(PID.TID 0000.0001) %MON dynstat_salt_min             =   3.4000000000000E+01
(PID.TID 0000.0001) %MON dynstat_salt_mean            =   3.4498779832175E+01
(PID.TID 0000.0001) %MON dynstat_salt_sd              =   2.7612775459053E-01
(PID.TID 0000.0001) %MON dynstat_salt_del2            =   3.1980005927503E-06
(PID.TID 0000.0001) %MON advcfl_uvel_max              =   8.1939108554069E-03
(PID.TID 0000.0001) %MON advcfl_vvel_max              =   4.5477092715873E-03
(PID.TID 0000.0001) %MON advcfl_wvel_max              =   1.2958035546434E-02
(PID.TID 0000.0001) %MON advcfl_W_hf_max              =   1.2958035546434E-02
(PID.TID 0000.0001) %MON pe_b_mean                    =  -8.2952965749548E-01
(PID.TID 0000.0001) %MON ke_max                       =   3.0535970585458E-03
(PID.TID 0000.0001) %MON ke_mean                      =   3.7386276986809E-06
(PID.TID 0000.0001) %MON ke_vol                       =   4.2724651987164E+12
(PID.TID 0000.0001) // =======================================================
(PID.TID 0000.0001) // End MONITOR dynamic field statistics
(PID.TID 0000.0001) // =======================================================
(PID.TID 0000.0001) // =======================================================
(PID.TID 0000.0001) // Begin OBCS MONITOR field statistics
(PID.TID 0000.0001) // =======================================================
(PID.TID 0000.0001) %MON obc_N_vVel_max               =   1.5014377594559E-05
(PID.TID 0000.0001) %MON obc_N_vVel_min               =   1.5014377594559E-05
(PID.TID 0000.0001) %MON obc_N_vVel_mean              =   1.5014377594559E-05
(PID.TID 0000.0001) %MON obc_N_vVel_sd                =   2.7893848133284E-12
(PID.TID 0000.0001) %MON obc_N_vVel_Int               =   9.9094892124092E+02
(PID.TID 0000.0001) // =======================================================
(PID.TID 0000.0001) // End OBCS MONITOR field statistics
(PID.TID 0000.0001) // =======================================================
 cg2d: Sum(rhs),rhsMax =   4.50783175420738E+00  2.99978429903120E+02
(PID.TID 0000.0001)      cg2d_init_res =   1.38862215897147E-05
(PID.TID 0000.0001)      cg2d_iters(min,last) =      -1      85
(PID.TID 0000.0001)      cg2d_last_res =   9.63442104939976E-12
(PID.TID 0000.0001) // =======================================================
(PID.TID 0000.0001) // Begin MONITOR dynamic field statistics
(PID.TID 0000.0001) // =======================================================
(PID.TID 0000.0001) %MON time_tsnumber                =                  1625
(PID.TID 0000.0001) %MON time_secondsf                =   1.6250000000000E+05
(PID.TID 0000.0001) %MON dynstat_eta_max              =   5.8094857954314E+00
(PID.TID 0000.0001) %MON dynstat_eta_min              =  -1.4198501222663E+01
(PID.TID 0000.0001) %MON dynstat_eta_mean             =  -2.5041709109159E+00
(PID.TID 0000.0001) %MON dynstat_eta_sd               =   4.9502572016476E+00
(PID.TID 0000.0001) %MON dynstat_eta_del2             =   2.0717911051410E-01
(PID.TID 0000.0001) %MON dynstat_uvel_max             =   1.8887827957940E-02
(PID.TID 0000.0001) %MON dynstat_uvel_min             =  -8.2109359796247E-02
(PID.TID 0000.0001) %MON dynstat_uvel_mean            =  -1.0072095389801E-07
(PID.TID 0000.0001) %MON dynstat_uvel_sd              =   2.4600905181634E-03
(PID.TID 0000.0001) %MON dynstat_uvel_del2            =   3.9769237717449E-06
(PID.TID 0000.0001) %MON dynstat_vvel_max             =   4.5516579332680E-02
(PID.TID 0000.0001) %MON dynstat_vvel_min             =  -2.9939608510620E-02
(PID.TID 0000.0001) %MON dynstat_vvel_mean            =   1.5345358030100E-05
(PID.TID 0000.0001) %MON dynstat_vvel_sd              =   1.2545174164636E-03
(PID.TID 0000.0001) %MON dynstat_vvel_del2            =   2.6093721987056E-06
(PID.TID 0000.0001) %MON dynstat_wvel_max             =   2.5941863074504E-03
(PID.TID 0000.0001) %MON dynstat_wvel_min             =  -2.5593928394618E-03
(PID.TID 0000.0001) %MON dynstat_wvel_mean            =   7.6182144270932E-09
(PID.TID 0000.0001) %MON dynstat_wvel_sd              =   4.5780355112419E-05
(PID.TID 0000.0001) %MON dynstat_wvel_del2            =   1.7617030937022E-07
(PID.TID 0000.0001) %MON dynstat_theta_max            =   1.2000000000000E+00
(PID.TID 0000.0001) %MON dynstat_theta_min            =  -1.0000000000000E+00
(PID.TID 0000.0001) %MON dynstat_theta_mean           =   5.6791246952421E-01
(PID.TID 0000.0001) %MON dynstat_theta_sd             =   8.6795561760692E-01
(PID.TID 0000.0001) %MON dynstat_theta_del2           =   8.0764525571283E-06
(PID.TID 0000.0001) %MON dynstat_salt_max             =   3.4700000000000E+01
(PID.TID 0000.0001) %MON dynstat_salt_min             =   3.4000000000000E+01
(PID.TID 0000.0001) %MON dynstat_salt_mean            =   3.4498778928682E+01
(PID.TID 0000.0001) %MON dynstat_salt_sd              =   2.7612733607457E-01
(PID.TID 0000.0001) %MON dynstat_salt_del2            =   3.2034269761778E-06
(PID.TID 0000.0001) %MON advcfl_uvel_max              =   8.2109359796247E-03
(PID.TID 0000.0001) %MON advcfl_vvel_max              =   4.5516579332680E-03
(PID.TID 0000.0001) %MON advcfl_wvel_max              =   1.2970931537252E-02
(PID.TID 0000.0001) %MON advcfl_W_hf_max              =   1.2970931537252E-02
(PID.TID 0000.0001) %MON pe_b_mean                    =  -8.2952799789907E-01
(PID.TID 0000.0001) %MON ke_max                       =   3.0650088312513E-03
(PID.TID 0000.0001) %MON ke_mean                      =   3.7530277834986E-06
(PID.TID 0000.0001) %MON ke_vol                       =   4.2724652116532E+12
(PID.TID 0000.0001) // =======================================================
(PID.TID 0000.0001) // End MONITOR dynamic field statistics
(PID.TID 0000.0001) // =======================================================
(PID.TID 0000.0001) // =======================================================
(PID.TID 0000.0001) // Begin OBCS MONITOR field statistics
(PID.TID 0000.0001) // =======================================================
(PID.TID 0000.0001) %MON obc_N_vVel_max               =   1.5010901231516E-05
(PID.TID 0000.0001) %MON obc_N_vVel_min               =   1.5010901231516E-05
(PID.TID 0000.0001) %MON obc_N_vVel_mean              =   1.5010901231516E-05
(PID.TID 0000.0001) %MON obc_N_vVel_sd                =  -7.3153785422658E-24
(PID.TID 0000.0001) %MON obc_N_vVel_Int               =   9.9071948128008E+02
(PID.TID 0000.0001) // =======================================================
(PID.TID 0000.0001) // End OBCS MONITOR field statistics
(PID.TID 0000.0001) // =======================================================
 cg2d: Sum(rhs),rhsMax =   4.50782645706586E+00  2.99978513468701E+02
(PID.TID 0000.0001)      cg2d_init_res =   1.39036252416645E-05
(PID.TID 0000.0001)      cg2d_iters(min,last) =      -1      85
(PID.TID 0000.0001)      cg2d_last_res =   9.64246826238752E-12
(PID.TID 0000.0001) // =======================================================
(PID.TID 0000.0001) // Begin MONITOR dynamic field statistics
(PID.TID 0000.0001) // =======================================================
(PID.TID 0000.0001) %MON time_tsnumber                =                  1626
(PID.TID 0000.0001) %MON time_secondsf                =   1.6260000000000E+05
(PID.TID 0000.0001) %MON dynstat_eta_max              =   5.8096060863473E+00
(PID.TID 0000.0001) %MON dynstat_eta_min              =  -1.4198531023739E+01
(PID.TID 0000.0001) %MON dynstat_eta_mean             =  -2.5041686658620E+00
(PID.TID 0000.0001) %MON dynstat_eta_sd               =   4.9502572337405E+00
(PID.TID 0000.0001) %MON dynstat_eta_del2             =   2.0717918107956E-01
(PID.TID 0000.0001) %MON dynstat_uvel_max             =   1.8925337615814E-02
(PID.TID 0000.0001) %MON dynstat_uvel_min             =  -8.2279736178844E-02
(PID.TID 0000.0001) %MON dynstat_uvel_mean            =  -1.0068763934486E-07
(PID.TID 0000.0001) %MON dynstat_uvel_sd              =   2.4648814843977E-03
(PID.TID 0000.0001) %MON dynstat_uvel_del2            =   3.9862034493953E-06
(PID.TID 0000.0001) %MON dynstat_vvel_max             =   4.5555999170354E-02
(PID.TID 0000.0001) %MON dynstat_vvel_min             =  -2.9999012093079E-02
(PID.TID 0000.0001) %MON dynstat_vvel_mean            =   1.5341371485703E-05
(PID.TID 0000.0001) %MON dynstat_vvel_sd              =   1.2568126597846E-03
(PID.TID 0000.0001) %MON dynstat_vvel_del2            =   2.6142159314524E-06
(PID.TID 0000.0001) %MON dynstat_wvel_max             =   2.5967611408331E-03
(PID.TID 0000.0001) %MON dynstat_wvel_min             =  -2.5616201084012E-03
(PID.TID 0000.0001) %MON dynstat_wvel_mean            =   7.6141419014131E-09
(PID.TID 0000.0001) %MON dynstat_wvel_sd              =   4.5847878881721E-05
(PID.TID 0000.0001) %MON dynstat_wvel_del2            =   1.7640550043345E-07
(PID.TID 0000.0001) %MON dynstat_theta_max            =   1.2000000000000E+00
(PID.TID 0000.0001) %MON dynstat_theta_min            =  -1.0000000000000E+00
(PID.TID 0000.0001) %MON dynstat_theta_mean           =   5.6791020884896E-01
(PID.TID 0000.0001) %MON dynstat_theta_sd             =   8.6795450527354E-01
(PID.TID 0000.0001) %MON dynstat_theta_del2           =   8.0901223627149E-06
(PID.TID 0000.0001) %MON dynstat_salt_max             =   3.4700000000000E+01
(PID.TID 0000.0001) %MON dynstat_salt_min             =   3.4000000000000E+01
(PID.TID 0000.0001) %MON dynstat_salt_mean            =   3.4498778023771E+01
(PID.TID 0000.0001) %MON dynstat_salt_sd              =   2.7612691708215E-01
(PID.TID 0000.0001) %MON dynstat_salt_del2            =   3.2088592859883E-06
(PID.TID 0000.0001) %MON advcfl_uvel_max              =   8.2279736178844E-03
(PID.TID 0000.0001) %MON advcfl_vvel_max              =   4.5555999170354E-03
(PID.TID 0000.0001) %MON advcfl_wvel_max              =   1.2983805704165E-02
(PID.TID 0000.0001) %MON advcfl_W_hf_max              =   1.2983805704165E-02
(PID.TID 0000.0001) %MON pe_b_mean                    =  -8.2952632694946E-01
(PID.TID 0000.0001) %MON ke_max                       =   3.0764463602390E-03
(PID.TID 0000.0001) %MON ke_mean                      =   3.7674734867289E-06
(PID.TID 0000.0001) %MON ke_vol                       =   4.2724652247892E+12
(PID.TID 0000.0001) // =======================================================
(PID.TID 0000.0001) // End MONITOR dynamic field statistics
(PID.TID 0000.0001) // =======================================================
(PID.TID 0000.0001) // =======================================================
(PID.TID 0000.0001) // Begin OBCS MONITOR field statistics
(PID.TID 0000.0001) // =======================================================
(PID.TID 0000.0001) %MON obc_N_vVel_max               =   1.5007364047545E-05
(PID.TID 0000.0001) %MON obc_N_vVel_min               =   1.5007364047545E-05
(PID.TID 0000.0001) %MON obc_N_vVel_mean              =   1.5007364047545E-05
(PID.TID 0000.0001) %MON obc_N_vVel_sd                =  -1.3803576471979E-23
(PID.TID 0000.0001) %MON obc_N_vVel_Int               =   9.9048602713799E+02
(PID.TID 0000.0001) // =======================================================
(PID.TID 0000.0001) // End OBCS MONITOR field statistics
(PID.TID 0000.0001) // =======================================================
 cg2d: Sum(rhs),rhsMax =   4.50782109895434E+00  2.99978597065860E+02
(PID.TID 0000.0001)      cg2d_init_res =   1.39212101447895E-05
(PID.TID 0000.0001)      cg2d_iters(min,last) =      -1      85
(PID.TID 0000.0001)      cg2d_last_res =   9.65115308487596E-12
(PID.TID 0000.0001) // =======================================================
(PID.TID 0000.0001) // Begin MONITOR dynamic field statistics
(PID.TID 0000.0001) // =======================================================
(PID.TID 0000.0001) %MON time_tsnumber                =                  1627
(PID.TID 0000.0001) %MON time_secondsf                =   1.6270000000000E+05
(PID.TID 0000.0001) %MON dynstat_eta_max              =   5.8097266552678E+00
(PID.TID 0000.0001) %MON dynstat_eta_min              =  -1.4198560820522E+01
(PID.TID 0000.0001) %MON dynstat_eta_mean             =  -2.5041663872004E+00
(PID.TID 0000.0001) %MON dynstat_eta_sd               =   4.9502572558537E+00
(PID.TID 0000.0001) %MON dynstat_eta_del2             =   2.0717925173241E-01
(PID.TID 0000.0001) %MON dynstat_uvel_max             =   1.8962897773326E-02
(PID.TID 0000.0001) %MON dynstat_uvel_min             =  -8.2450236921332E-02
(PID.TID 0000.0001) %MON dynstat_uvel_mean            =  -1.0065984043288E-07
(PID.TID 0000.0001) %MON dynstat_uvel_sd              =   2.4696780776553E-03
(PID.TID 0000.0001) %MON dynstat_uvel_del2            =   3.9955009525775E-06
(PID.TID 0000.0001) %MON dynstat_vvel_max             =   4.5595352107220E-02
(PID.TID 0000.0001) %MON dynstat_vvel_min             =  -3.0058430889813E-02
(PID.TID 0000.0001) %MON dynstat_vvel_mean            =   1.5337489515984E-05
(PID.TID 0000.0001) %MON dynstat_vvel_sd              =   1.2591114071844E-03
(PID.TID 0000.0001) %MON dynstat_vvel_del2            =   2.6190676724612E-06
(PID.TID 0000.0001) %MON dynstat_wvel_max             =   2.5993316043434E-03
(PID.TID 0000.0001) %MON dynstat_wvel_min             =  -2.5638272711285E-03
(PID.TID 0000.0001) %MON dynstat_wvel_mean            =   7.6109776436507E-09
(PID.TID 0000.0001) %MON dynstat_wvel_sd              =   4.5915669383258E-05
(PID.TID 0000.0001) %MON dynstat_wvel_del2            =   1.7663968949759E-07
(PID.TID 0000.0001) %MON dynstat_theta_max            =   1.2000000000000E+00
(PID.TID 0000.0001) %MON dynstat_theta_min            =  -1.0000000000000E+00
(PID.TID 0000.0001) %MON dynstat_theta_mean           =   5.6790794463190E-01
(PID.TID 0000.0001) %MON dynstat_theta_sd             =   8.6795339156700E-01
(PID.TID 0000.0001) %MON dynstat_theta_del2           =   8.1038067943671E-06
(PID.TID 0000.0001) %MON dynstat_salt_max             =   3.4700000000000E+01
(PID.TID 0000.0001) %MON dynstat_salt_min             =   3.4000000000000E+01
(PID.TID 0000.0001) %MON dynstat_salt_mean            =   3.4498777117442E+01
(PID.TID 0000.0001) %MON dynstat_salt_sd              =   2.7612649761375E-01
(PID.TID 0000.0001) %MON dynstat_salt_del2            =   3.2142973980956E-06
(PID.TID 0000.0001) %MON advcfl_uvel_max              =   8.2450236921332E-03
(PID.TID 0000.0001) %MON advcfl_vvel_max              =   4.5595352107220E-03
(PID.TID 0000.0001) %MON advcfl_wvel_max              =   1.2996658021717E-02
(PID.TID 0000.0001) %MON advcfl_W_hf_max              =   1.2996658021717E-02
(PID.TID 0000.0001) %MON pe_b_mean                    =  -8.2952464467205E-01
(PID.TID 0000.0001) %MON ke_max                       =   3.0879096334144E-03
(PID.TID 0000.0001) %MON ke_mean                      =   3.7819649911209E-06
(PID.TID 0000.0001) %MON ke_vol                       =   4.2724652381248E+12
(PID.TID 0000.0001) // =======================================================
(PID.TID 0000.0001) // End MONITOR dynamic field statistics
(PID.TID 0000.0001) // =======================================================
(PID.TID 0000.0001) // =======================================================
(PID.TID 0000.0001) // Begin OBCS MONITOR field statistics
(PID.TID 0000.0001) // =======================================================
(PID.TID 0000.0001) %MON obc_N_vVel_max               =   1.5003856632319E-05
(PID.TID 0000.0001) %MON obc_N_vVel_min               =   1.5003856632319E-05
(PID.TID 0000.0001) %MON obc_N_vVel_mean              =   1.5003856632319E-05
(PID.TID 0000.0001) %MON obc_N_vVel_sd                =   3.3763268231536E-12
(PID.TID 0000.0001) %MON obc_N_vVel_Int               =   9.9025453773305E+02
(PID.TID 0000.0001) // =======================================================
(PID.TID 0000.0001) // End OBCS MONITOR field statistics
(PID.TID 0000.0001) // =======================================================
 cg2d: Sum(rhs),rhsMax =   4.50781567997118E+00  2.99978680700979E+02
(PID.TID 0000.0001)      cg2d_init_res =   1.39389916053048E-05
(PID.TID 0000.0001)      cg2d_iters(min,last) =      -1      85
(PID.TID 0000.0001)      cg2d_last_res =   9.66047411319263E-12
(PID.TID 0000.0001) // =======================================================
(PID.TID 0000.0001) // Begin MONITOR dynamic field statistics
(PID.TID 0000.0001) // =======================================================
(PID.TID 0000.0001) %MON time_tsnumber                =                  1628
(PID.TID 0000.0001) %MON time_secondsf                =   1.6280000000000E+05
(PID.TID 0000.0001) %MON dynstat_eta_max              =   5.8098475018603E+00
(PID.TID 0000.0001) %MON dynstat_eta_min              =  -1.4198590613343E+01
(PID.TID 0000.0001) %MON dynstat_eta_mean             =  -2.5041640750388E+00
(PID.TID 0000.0001) %MON dynstat_eta_sd               =   4.9502572681049E+00
(PID.TID 0000.0001) %MON dynstat_eta_del2             =   2.0717932247298E-01
(PID.TID 0000.0001) %MON dynstat_uvel_max             =   1.9000508468777E-02
(PID.TID 0000.0001) %MON dynstat_uvel_min             =  -8.2620861235947E-02
(PID.TID 0000.0001) %MON dynstat_uvel_mean            =  -1.0063741182692E-07
(PID.TID 0000.0001) %MON dynstat_uvel_sd              =   2.4744802904873E-03
(PID.TID 0000.0001) %MON dynstat_uvel_del2            =   4.0048162870405E-06
(PID.TID 0000.0001) %MON dynstat_vvel_max             =   4.5634638021755E-02
(PID.TID 0000.0001) %MON dynstat_vvel_min             =  -3.0117863971427E-02
(PID.TID 0000.0001) %MON dynstat_vvel_mean            =   1.5333813005421E-05
(PID.TID 0000.0001) %MON dynstat_vvel_sd              =   1.2614137315843E-03
(PID.TID 0000.0001) %MON dynstat_vvel_del2            =   2.6239277723162E-06
(PID.TID 0000.0001) %MON dynstat_wvel_max             =   2.6018976929597E-03
(PID.TID 0000.0001) %MON dynstat_wvel_min             =  -2.5660140842664E-03
(PID.TID 0000.0001) %MON dynstat_wvel_mean            =   7.6088238681827E-09
(PID.TID 0000.0001) %MON dynstat_wvel_sd              =   4.5984060355004E-05
(PID.TID 0000.0001) %MON dynstat_wvel_del2            =   1.7687410799513E-07
(PID.TID 0000.0001) %MON dynstat_theta_max            =   1.2000000000000E+00
(PID.TID 0000.0001) %MON dynstat_theta_min            =  -1.0000000000000E+00
(PID.TID 0000.0001) %MON dynstat_theta_mean           =   5.6790567686925E-01
(PID.TID 0000.0001) %MON dynstat_theta_sd             =   8.6795227648753E-01
(PID.TID 0000.0001) %MON dynstat_theta_del2           =   8.1175009853543E-06
(PID.TID 0000.0001) %MON dynstat_salt_max             =   3.4700000000000E+01
(PID.TID 0000.0001) %MON dynstat_salt_min             =   3.4000000000000E+01
(PID.TID 0000.0001) %MON dynstat_salt_mean            =   3.4498776209693E+01
(PID.TID 0000.0001) %MON dynstat_salt_sd              =   2.7612607766951E-01
(PID.TID 0000.0001) %MON dynstat_salt_del2            =   3.2197398913511E-06
(PID.TID 0000.0001) %MON advcfl_uvel_max              =   8.2620861235947E-03
(PID.TID 0000.0001) %MON advcfl_vvel_max              =   4.5634638021755E-03
(PID.TID 0000.0001) %MON advcfl_wvel_max              =   1.3009488464798E-02
(PID.TID 0000.0001) %MON advcfl_W_hf_max              =   1.3009488464798E-02
(PID.TID 0000.0001) %MON pe_b_mean                    =  -8.2952295111737E-01
(PID.TID 0000.0001) %MON ke_max                       =   3.0993986387052E-03
(PID.TID 0000.0001) %MON ke_mean                      =   3.7965024756505E-06
(PID.TID 0000.0001) %MON ke_vol                       =   4.2724652516600E+12
(PID.TID 0000.0001) // =======================================================
(PID.TID 0000.0001) // End MONITOR dynamic field statistics
(PID.TID 0000.0001) // =======================================================
(PID.TID 0000.0001) // =======================================================
(PID.TID 0000.0001) // Begin OBCS MONITOR field statistics
(PID.TID 0000.0001) // =======================================================
(PID.TID 0000.0001) %MON obc_N_vVel_max               =   1.5000467887066E-05
(PID.TID 0000.0001) %MON obc_N_vVel_min               =   1.5000467887066E-05
(PID.TID 0000.0001) %MON obc_N_vVel_mean              =   1.5000467887066E-05
(PID.TID 0000.0001) %MON obc_N_vVel_sd                =   2.2277979431084E-12
(PID.TID 0000.0001) %MON obc_N_vVel_Int               =   9.9003088054635E+02
(PID.TID 0000.0001) // =======================================================
(PID.TID 0000.0001) // End OBCS MONITOR field statistics
(PID.TID 0000.0001) // =======================================================
 cg2d: Sum(rhs),rhsMax =   4.50781020038280E+00  2.99978764380593E+02
(PID.TID 0000.0001)      cg2d_init_res =   1.39569522387361E-05
(PID.TID 0000.0001)      cg2d_iters(min,last) =      -1      85
(PID.TID 0000.0001)      cg2d_last_res =   9.67043394661498E-12
(PID.TID 0000.0001) // =======================================================
(PID.TID 0000.0001) // Begin MONITOR dynamic field statistics
(PID.TID 0000.0001) // =======================================================
(PID.TID 0000.0001) %MON time_tsnumber                =                  1629
(PID.TID 0000.0001) %MON time_secondsf                =   1.6290000000000E+05
(PID.TID 0000.0001) %MON dynstat_eta_max              =   5.8099686255940E+00
(PID.TID 0000.0001) %MON dynstat_eta_min              =  -1.4198620402588E+01
(PID.TID 0000.0001) %MON dynstat_eta_mean             =  -2.5041617295798E+00
(PID.TID 0000.0001) %MON dynstat_eta_sd               =   4.9502572706310E+00
(PID.TID 0000.0001) %MON dynstat_eta_del2             =   2.0717939330113E-01
(PID.TID 0000.0001) %MON dynstat_uvel_max             =   1.9038169741325E-02
(PID.TID 0000.0001) %MON dynstat_uvel_min             =  -8.2791608327264E-02
(PID.TID 0000.0001) %MON dynstat_uvel_mean            =  -1.0062008878516E-07
(PID.TID 0000.0001) %MON dynstat_uvel_sd              =   2.4792881154071E-03
(PID.TID 0000.0001) %MON dynstat_uvel_del2            =   4.0141494562460E-06
(PID.TID 0000.0001) %MON dynstat_vvel_max             =   4.5673856792149E-02
(PID.TID 0000.0001) %MON dynstat_vvel_min             =  -3.0177310403461E-02
(PID.TID 0000.0001) %MON dynstat_vvel_mean            =   1.5330436974797E-05
(PID.TID 0000.0001) %MON dynstat_vvel_sd              =   1.2637196995002E-03
(PID.TID 0000.0001) %MON dynstat_vvel_del2            =   2.6287965494916E-06
(PID.TID 0000.0001) %MON dynstat_wvel_max             =   2.6044594017286E-03
(PID.TID 0000.0001) %MON dynstat_wvel_min             =  -2.5681803050737E-03
(PID.TID 0000.0001) %MON dynstat_wvel_mean            =   7.6077582096234E-09
(PID.TID 0000.0001) %MON dynstat_wvel_sd              =   4.6053355651298E-05
(PID.TID 0000.0001) %MON dynstat_wvel_del2            =   1.7710998281411E-07
(PID.TID 0000.0001) %MON dynstat_theta_max            =   1.2000000000000E+00
(PID.TID 0000.0001) %MON dynstat_theta_min            =  -1.0000000000000E+00
(PID.TID 0000.0001) %MON dynstat_theta_mean           =   5.6790340555706E-01
(PID.TID 0000.0001) %MON dynstat_theta_sd             =   8.6795116003535E-01
(PID.TID 0000.0001) %MON dynstat_theta_del2           =   8.1312053441174E-06
(PID.TID 0000.0001) %MON dynstat_salt_max             =   3.4700000000000E+01
(PID.TID 0000.0001) %MON dynstat_salt_min             =   3.4000000000000E+01
(PID.TID 0000.0001) %MON dynstat_salt_mean            =   3.4498775300521E+01
(PID.TID 0000.0001) %MON dynstat_salt_sd              =   2.7612565724981E-01
(PID.TID 0000.0001) %MON dynstat_salt_del2            =   3.2251860480746E-06
(PID.TID 0000.0001) %MON advcfl_uvel_max              =   8.2791608327264E-03
(PID.TID 0000.0001) %MON advcfl_vvel_max              =   4.5673856792149E-03
(PID.TID 0000.0001) %MON advcfl_wvel_max              =   1.3022297008643E-02
(PID.TID 0000.0001) %MON advcfl_W_hf_max              =   1.3022297008643E-02
(PID.TID 0000.0001) %MON pe_b_mean                    =  -8.2952124635939E-01
(PID.TID 0000.0001) %MON ke_max                       =   3.1109133640672E-03
(PID.TID 0000.0001) %MON ke_mean                      =   3.8110861116777E-06
(PID.TID 0000.0001) %MON ke_vol                       =   4.2724652653943E+12
(PID.TID 0000.0001) // =======================================================
(PID.TID 0000.0001) // End MONITOR dynamic field statistics
(PID.TID 0000.0001) // =======================================================
(PID.TID 0000.0001) // =======================================================
(PID.TID 0000.0001) // Begin OBCS MONITOR field statistics
(PID.TID 0000.0001) // =======================================================
(PID.TID 0000.0001) %MON obc_N_vVel_max               =   1.4997283019275E-05
(PID.TID 0000.0001) %MON obc_N_vVel_min               =   1.4997283019275E-05
(PID.TID 0000.0001) %MON obc_N_vVel_mean              =   1.4997283019275E-05
(PID.TID 0000.0001) %MON obc_N_vVel_sd                =   2.1927123182179E-12
(PID.TID 0000.0001) %MON obc_N_vVel_Int               =   9.8982067927216E+02
(PID.TID 0000.0001) // =======================================================
(PID.TID 0000.0001) // End OBCS MONITOR field statistics
(PID.TID 0000.0001) // =======================================================
 cg2d: Sum(rhs),rhsMax =   4.50780466061483E+00  2.99978848111221E+02
(PID.TID 0000.0001)      cg2d_init_res =   1.39751019354484E-05
(PID.TID 0000.0001)      cg2d_iters(min,last) =      -1      85
(PID.TID 0000.0001)      cg2d_last_res =   9.68101442033439E-12
(PID.TID 0000.0001) // =======================================================
(PID.TID 0000.0001) // Begin MONITOR dynamic field statistics
(PID.TID 0000.0001) // =======================================================
(PID.TID 0000.0001) %MON time_tsnumber                =                  1630
(PID.TID 0000.0001) %MON time_secondsf                =   1.6300000000000E+05
(PID.TID 0000.0001) %MON dynstat_eta_max              =   5.8100900257573E+00
(PID.TID 0000.0001) %MON dynstat_eta_min              =  -1.4198650188716E+01
(PID.TID 0000.0001) %MON dynstat_eta_mean             =  -2.5041593511141E+00
(PID.TID 0000.0001) %MON dynstat_eta_sd               =   4.9502572635926E+00
(PID.TID 0000.0001) %MON dynstat_eta_del2             =   2.0717946421682E-01
(PID.TID 0000.0001) %MON dynstat_uvel_max             =   1.9075881631666E-02
(PID.TID 0000.0001) %MON dynstat_uvel_min             =  -8.2962477391687E-02
(PID.TID 0000.0001) %MON dynstat_uvel_mean            =  -1.0060749830470E-07
(PID.TID 0000.0001) %MON dynstat_uvel_sd              =   2.4841015448795E-03
(PID.TID 0000.0001) %MON dynstat_uvel_del2            =   4.0235004619017E-06
(PID.TID 0000.0001) %MON dynstat_vvel_max             =   4.5713008295753E-02
(PID.TID 0000.0001) %MON dynstat_vvel_min             =  -3.0236769244613E-02
(PID.TID 0000.0001) %MON dynstat_vvel_mean            =   1.5327448406632E-05
(PID.TID 0000.0001) %MON dynstat_vvel_sd              =   1.2660293679736E-03
(PID.TID 0000.0001) %MON dynstat_vvel_del2            =   2.6336742738067E-06
(PID.TID 0000.0001) %MON dynstat_wvel_max             =   2.6070167257741E-03
(PID.TID 0000.0001) %MON dynstat_wvel_min             =  -2.5703256934759E-03
(PID.TID 0000.0001) %MON dynstat_wvel_mean            =   7.6078322338799E-09
(PID.TID 0000.0001) %MON dynstat_wvel_sd              =   4.6123814371013E-05
(PID.TID 0000.0001) %MON dynstat_wvel_del2            =   1.7734846897961E-07
(PID.TID 0000.0001) %MON dynstat_theta_max            =   1.2000000000000E+00
(PID.TID 0000.0001) %MON dynstat_theta_min            =  -1.0000000000000E+00
(PID.TID 0000.0001) %MON dynstat_theta_mean           =   5.6790113069120E-01
(PID.TID 0000.0001) %MON dynstat_theta_sd             =   8.6795004221113E-01
(PID.TID 0000.0001) %MON dynstat_theta_del2           =   8.1449227148368E-06
(PID.TID 0000.0001) %MON dynstat_salt_max             =   3.4700000000000E+01
(PID.TID 0000.0001) %MON dynstat_salt_min             =   3.4000000000000E+01
(PID.TID 0000.0001) %MON dynstat_salt_mean            =   3.4498774389927E+01
(PID.TID 0000.0001) %MON dynstat_salt_sd              =   2.7612523635507E-01
(PID.TID 0000.0001) %MON dynstat_salt_del2            =   3.2306375536563E-06
(PID.TID 0000.0001) %MON advcfl_uvel_max              =   8.2962477391687E-03
(PID.TID 0000.0001) %MON advcfl_vvel_max              =   4.5713008295753E-03
(PID.TID 0000.0001) %MON advcfl_wvel_max              =   1.3035083628871E-02
(PID.TID 0000.0001) %MON advcfl_W_hf_max              =   1.3035083628871E-02
(PID.TID 0000.0001) %MON pe_b_mean                    =  -8.2951953049341E-01
(PID.TID 0000.0001) %MON ke_max                       =   3.1224537974572E-03
(PID.TID 0000.0001) %MON ke_mean                      =   3.8257160589311E-06
(PID.TID 0000.0001) %MON ke_vol                       =   4.2724652793263E+12
(PID.TID 0000.0001) // =======================================================
(PID.TID 0000.0001) // End MONITOR dynamic field statistics
(PID.TID 0000.0001) // =======================================================
(PID.TID 0000.0001) // =======================================================
(PID.TID 0000.0001) // Begin OBCS MONITOR field statistics
(PID.TID 0000.0001) // =======================================================
(PID.TID 0000.0001) %MON obc_N_vVel_max               =   1.4994381501299E-05
(PID.TID 0000.0001) %MON obc_N_vVel_min               =   1.4994381501299E-05
(PID.TID 0000.0001) %MON obc_N_vVel_mean              =   1.4994381501299E-05
(PID.TID 0000.0001) %MON obc_N_vVel_sd                =   2.5774588831961E-12
(PID.TID 0000.0001) %MON obc_N_vVel_Int               =   9.8962917908574E+02
(PID.TID 0000.0001) // =======================================================
(PID.TID 0000.0001) // End OBCS MONITOR field statistics
(PID.TID 0000.0001) // =======================================================
 cg2d: Sum(rhs),rhsMax =   4.50779906123951E+00  2.99978931899210E+02
(PID.TID 0000.0001)      cg2d_init_res =   1.39935186302201E-05
(PID.TID 0000.0001)      cg2d_iters(min,last) =      -1      85
(PID.TID 0000.0001)      cg2d_last_res =   9.69211012379946E-12
(PID.TID 0000.0001) // =======================================================
(PID.TID 0000.0001) // Begin MONITOR dynamic field statistics
(PID.TID 0000.0001) // =======================================================
(PID.TID 0000.0001) %MON time_tsnumber                =                  1631
(PID.TID 0000.0001) %MON time_secondsf                =   1.6310000000000E+05
(PID.TID 0000.0001) %MON dynstat_eta_max              =   5.8102117014742E+00
(PID.TID 0000.0001) %MON dynstat_eta_min              =  -1.4198679972250E+01
(PID.TID 0000.0001) %MON dynstat_eta_mean             =  -2.5041569400128E+00
(PID.TID 0000.0001) %MON dynstat_eta_sd               =   4.9502572471755E+00
(PID.TID 0000.0001) %MON dynstat_eta_del2             =   2.0717953522073E-01
(PID.TID 0000.0001) %MON dynstat_uvel_max             =   1.9113644182120E-02
(PID.TID 0000.0001) %MON dynstat_uvel_min             =  -8.3133467615985E-02
(PID.TID 0000.0001) %MON dynstat_uvel_mean            =  -1.0059914446407E-07
(PID.TID 0000.0001) %MON dynstat_uvel_sd              =   2.4889205713089E-03
(PID.TID 0000.0001) %MON dynstat_uvel_del2            =   4.0328693105985E-06
(PID.TID 0000.0001) %MON dynstat_vvel_max             =   4.5752092408850E-02
(PID.TID 0000.0001) %MON dynstat_vvel_min             =  -3.0296239547365E-02
(PID.TID 0000.0001) %MON dynstat_vvel_mean            =   1.5324924265893E-05
(PID.TID 0000.0001) %MON dynstat_vvel_sd              =   1.2683427813752E-03
(PID.TID 0000.0001) %MON dynstat_vvel_del2            =   2.6385611523230E-06
(PID.TID 0000.0001) %MON dynstat_wvel_max             =   2.6095696602812E-03
(PID.TID 0000.0001) %MON dynstat_wvel_min             =  -2.5724500133876E-03
(PID.TID 0000.0001) %MON dynstat_wvel_mean            =   7.6090693462782E-09
(PID.TID 0000.0001) %MON dynstat_wvel_sd              =   4.6195638164328E-05
(PID.TID 0000.0001) %MON dynstat_wvel_del2            =   1.7759058361368E-07
(PID.TID 0000.0001) %MON dynstat_theta_max            =   1.2000000000000E+00
(PID.TID 0000.0001) %MON dynstat_theta_min            =  -1.0000000000000E+00
(PID.TID 0000.0001) %MON dynstat_theta_mean           =   5.6789885226737E-01
(PID.TID 0000.0001) %MON dynstat_theta_sd             =   8.6794892301444E-01
(PID.TID 0000.0001) %MON dynstat_theta_del2           =   8.1586527279757E-06
(PID.TID 0000.0001) %MON dynstat_salt_max             =   3.4700000000000E+01
(PID.TID 0000.0001) %MON dynstat_salt_min             =   3.4000000000000E+01
(PID.TID 0000.0001) %MON dynstat_salt_mean            =   3.4498773477908E+01
(PID.TID 0000.0001) %MON dynstat_salt_sd              =   2.7612481498547E-01
(PID.TID 0000.0001) %MON dynstat_salt_del2            =   3.2360943212977E-06
(PID.TID 0000.0001) %MON advcfl_uvel_max              =   8.3133467615985E-03
(PID.TID 0000.0001) %MON advcfl_vvel_max              =   4.5752092408850E-03
(PID.TID 0000.0001) %MON advcfl_wvel_max              =   1.3047848301406E-02
(PID.TID 0000.0001) %MON advcfl_W_hf_max              =   1.3047848301406E-02
(PID.TID 0000.0001) %MON pe_b_mean                    =  -8.2951780363338E-01
(PID.TID 0000.0001) %MON ke_max                       =   3.1340199267491E-03
(PID.TID 0000.0001) %MON ke_mean                      =   3.8403924612870E-06
(PID.TID 0000.0001) %MON ke_vol                       =   4.2724652934544E+12
(PID.TID 0000.0001) // =======================================================
(PID.TID 0000.0001) // End MONITOR dynamic field statistics
(PID.TID 0000.0001) // =======================================================
(PID.TID 0000.0001) // =======================================================
(PID.TID 0000.0001) // Begin OBCS MONITOR field statistics
(PID.TID 0000.0001) // =======================================================
(PID.TID 0000.0001) %MON obc_N_vVel_max               =   1.4991835350631E-05
(PID.TID 0000.0001) %MON obc_N_vVel_min               =   1.4991835350631E-05
(PID.TID 0000.0001) %MON obc_N_vVel_mean              =   1.4991835350631E-05
(PID.TID 0000.0001) %MON obc_N_vVel_sd                =  -4.0842042744806E-24
(PID.TID 0000.0001) %MON obc_N_vVel_Int               =   9.8946113314163E+02
(PID.TID 0000.0001) // =======================================================
(PID.TID 0000.0001) // End OBCS MONITOR field statistics
(PID.TID 0000.0001) // =======================================================
 cg2d: Sum(rhs),rhsMax =   4.50779340296018E+00  2.99979015750558E+02
(PID.TID 0000.0001)      cg2d_init_res =   1.40121443105901E-05
(PID.TID 0000.0001)      cg2d_iters(min,last) =      -1      85
(PID.TID 0000.0001)      cg2d_last_res =   9.70369602773891E-12
(PID.TID 0000.0001) // =======================================================
(PID.TID 0000.0001) // Begin MONITOR dynamic field statistics
(PID.TID 0000.0001) // =======================================================
(PID.TID 0000.0001) %MON time_tsnumber                =                  1632
(PID.TID 0000.0001) %MON time_secondsf                =   1.6320000000000E+05
(PID.TID 0000.0001) %MON dynstat_eta_max              =   5.8103336517309E+00
(PID.TID 0000.0001) %MON dynstat_eta_min              =  -1.4198709753727E+01
(PID.TID 0000.0001) %MON dynstat_eta_mean             =  -2.5041544967164E+00
(PID.TID 0000.0001) %MON dynstat_eta_sd               =   4.9502572215740E+00
(PID.TID 0000.0001) %MON dynstat_eta_del2             =   2.0717960631294E-01
(PID.TID 0000.0001) %MON dynstat_uvel_max             =   1.9151457436406E-02
(PID.TID 0000.0001) %MON dynstat_uvel_min             =  -8.3304578178309E-02
(PID.TID 0000.0001) %MON dynstat_uvel_mean            =  -1.0059443864932E-07
(PID.TID 0000.0001) %MON dynstat_uvel_sd              =   2.4937451870293E-03
(PID.TID 0000.0001) %MON dynstat_uvel_del2            =   4.0422560089029E-06
(PID.TID 0000.0001) %MON dynstat_vvel_max             =   4.5791109006036E-02
(PID.TID 0000.0001) %MON dynstat_vvel_min             =  -3.0355720359529E-02
(PID.TID 0000.0001) %MON dynstat_vvel_mean            =   1.5322929830327E-05
(PID.TID 0000.0001) %MON dynstat_vvel_sd              =   1.2706599699333E-03
(PID.TID 0000.0001) %MON dynstat_vvel_del2            =   2.6434573193681E-06
(PID.TID 0000.0001) %MON dynstat_wvel_max             =   2.6121182005265E-03
(PID.TID 0000.0001) %MON dynstat_wvel_min             =  -2.5745530288577E-03
(PID.TID 0000.0001) %MON dynstat_wvel_mean            =   7.6114665791858E-09
(PID.TID 0000.0001) %MON dynstat_wvel_sd              =   4.6268961653452E-05
(PID.TID 0000.0001) %MON dynstat_wvel_del2            =   1.7783715114784E-07
(PID.TID 0000.0001) %MON dynstat_theta_max            =   1.2000000000000E+00
(PID.TID 0000.0001) %MON dynstat_theta_min            =  -1.0000000000000E+00
(PID.TID 0000.0001) %MON dynstat_theta_mean           =   5.6789657028120E-01
(PID.TID 0000.0001) %MON dynstat_theta_sd             =   8.6794780244494E-01
(PID.TID 0000.0001) %MON dynstat_theta_del2           =   8.1723950553390E-06
(PID.TID 0000.0001) %MON dynstat_salt_max             =   3.4700000000000E+01
(PID.TID 0000.0001) %MON dynstat_salt_min             =   3.4000000000000E+01
(PID.TID 0000.0001) %MON dynstat_salt_mean            =   3.4498772564462E+01
(PID.TID 0000.0001) %MON dynstat_salt_sd              =   2.7612439314116E-01
(PID.TID 0000.0001) %MON dynstat_salt_del2            =   3.2415562543718E-06
(PID.TID 0000.0001) %MON advcfl_uvel_max              =   8.3304578178309E-03
(PID.TID 0000.0001) %MON advcfl_vvel_max              =   4.5791109006036E-03
(PID.TID 0000.0001) %MON advcfl_wvel_max              =   1.3060591002633E-02
(PID.TID 0000.0001) %MON advcfl_W_hf_max              =   1.3060591002633E-02
(PID.TID 0000.0001) %MON pe_b_mean                    =  -8.2951606590882E-01
(PID.TID 0000.0001) %MON ke_max                       =   3.1456117397983E-03
(PID.TID 0000.0001) %MON ke_mean                      =   3.8551154447040E-06
(PID.TID 0000.0001) %MON ke_vol                       =   4.2724653077763E+12
(PID.TID 0000.0001) // =======================================================
(PID.TID 0000.0001) // End MONITOR dynamic field statistics
(PID.TID 0000.0001) // =======================================================
(PID.TID 0000.0001) // =======================================================
(PID.TID 0000.0001) // Begin OBCS MONITOR field statistics
(PID.TID 0000.0001) // =======================================================
(PID.TID 0000.0001) %MON obc_N_vVel_max               =   1.4989707485787E-05
(PID.TID 0000.0001) %MON obc_N_vVel_min               =   1.4989707485787E-05
(PID.TID 0000.0001) %MON obc_N_vVel_mean              =   1.4989707485787E-05
(PID.TID 0000.0001) %MON obc_N_vVel_sd                =  -5.4025233757370E-24
(PID.TID 0000.0001) %MON obc_N_vVel_Int               =   9.8932069406197E+02
(PID.TID 0000.0001) // =======================================================
(PID.TID 0000.0001) // End OBCS MONITOR field statistics
(PID.TID 0000.0001) // =======================================================
 cg2d: Sum(rhs),rhsMax =   4.50778768659226E+00  2.99979099670794E+02
(PID.TID 0000.0001)      cg2d_init_res =   1.40309672664316E-05
(PID.TID 0000.0001)      cg2d_iters(min,last) =      -1      85
(PID.TID 0000.0001)      cg2d_last_res =   9.71571582405301E-12
(PID.TID 0000.0001) // =======================================================
(PID.TID 0000.0001) // Begin MONITOR dynamic field statistics
(PID.TID 0000.0001) // =======================================================
(PID.TID 0000.0001) %MON time_tsnumber                =                  1633
(PID.TID 0000.0001) %MON time_secondsf                =   1.6330000000000E+05
(PID.TID 0000.0001) %MON dynstat_eta_max              =   5.8104558754103E+00
(PID.TID 0000.0001) %MON dynstat_eta_min              =  -1.4198739533741E+01
(PID.TID 0000.0001) %MON dynstat_eta_mean             =  -2.5041520217241E+00
(PID.TID 0000.0001) %MON dynstat_eta_sd               =   4.9502571869915E+00
(PID.TID 0000.0001) %MON dynstat_eta_del2             =   2.0717967749364E-01
(PID.TID 0000.0001) %MON dynstat_uvel_max             =   1.9189321439541E-02
(PID.TID 0000.0001) %MON dynstat_uvel_min             =  -8.3475808249348E-02
(PID.TID 0000.0001) %MON dynstat_uvel_mean            =  -1.0059272010226E-07
(PID.TID 0000.0001) %MON dynstat_uvel_sd              =   2.4985753843083E-03
(PID.TID 0000.0001) %MON dynstat_uvel_del2            =   4.0516605634146E-06
(PID.TID 0000.0001) %MON dynstat_vvel_max             =   4.5830057960218E-02
(PID.TID 0000.0001) %MON dynstat_vvel_min             =  -3.0415210724192E-02
(PID.TID 0000.0001) %MON dynstat_vvel_mean            =   1.5321517289690E-05
(PID.TID 0000.0001) %MON dynstat_vvel_sd              =   1.2729809486072E-03
(PID.TID 0000.0001) %MON dynstat_vvel_del2            =   2.6483628290062E-06
(PID.TID 0000.0001) %MON dynstat_wvel_max             =   2.6146623418559E-03
(PID.TID 0000.0001) %MON dynstat_wvel_min             =  -2.5766345049435E-03
(PID.TID 0000.0001) %MON dynstat_wvel_mean            =   7.6149933337622E-09
(PID.TID 0000.0001) %MON dynstat_wvel_sd              =   4.6343846148651E-05
(PID.TID 0000.0001) %MON dynstat_wvel_del2            =   1.7808875516510E-07
(PID.TID 0000.0001) %MON dynstat_theta_max            =   1.2000000000000E+00
(PID.TID 0000.0001) %MON dynstat_theta_min            =  -1.0000000000000E+00
(PID.TID 0000.0001) %MON dynstat_theta_mean           =   5.6789428472816E-01
(PID.TID 0000.0001) %MON dynstat_theta_sd             =   8.6794668050211E-01
(PID.TID 0000.0001) %MON dynstat_theta_del2           =   8.1861494703530E-06
(PID.TID 0000.0001) %MON dynstat_salt_max             =   3.4700000000000E+01
(PID.TID 0000.0001) %MON dynstat_salt_min             =   3.4000000000000E+01
(PID.TID 0000.0001) %MON dynstat_salt_mean            =   3.4498771649588E+01
(PID.TID 0000.0001) %MON dynstat_salt_sd              =   2.7612397082231E-01
(PID.TID 0000.0001) %MON dynstat_salt_del2            =   3.2470232892315E-06
(PID.TID 0000.0001) %MON advcfl_uvel_max              =   8.3475808249348E-03
(PID.TID 0000.0001) %MON advcfl_vvel_max              =   4.5830057960218E-03
(PID.TID 0000.0001) %MON advcfl_wvel_max              =   1.3073311709279E-02
(PID.TID 0000.0001) %MON advcfl_W_hf_max              =   1.3073311709279E-02
(PID.TID 0000.0001) %MON pe_b_mean                    =  -8.2951431746147E-01
(PID.TID 0000.0001) %MON ke_max                       =   3.1572292245089E-03
(PID.TID 0000.0001) %MON ke_mean                      =   3.8698851156144E-06
(PID.TID 0000.0001) %MON ke_vol                       =   4.2724653222895E+12
(PID.TID 0000.0001) // =======================================================
(PID.TID 0000.0001) // End MONITOR dynamic field statistics
(PID.TID 0000.0001) // =======================================================
(PID.TID 0000.0001) // =======================================================
(PID.TID 0000.0001) // Begin OBCS MONITOR field statistics
(PID.TID 0000.0001) // =======================================================
(PID.TID 0000.0001) %MON obc_N_vVel_max               =   1.4988050380711E-05
(PID.TID 0000.0001) %MON obc_N_vVel_min               =   1.4988050380711E-05
(PID.TID 0000.0001) %MON obc_N_vVel_mean              =   1.4988050380711E-05
(PID.TID 0000.0001) %MON obc_N_vVel_sd                =  -1.4656606478674E-23
(PID.TID 0000.0001) %MON obc_N_vVel_Int               =   9.8921132512692E+02
(PID.TID 0000.0001) // =======================================================
(PID.TID 0000.0001) // End OBCS MONITOR field statistics
(PID.TID 0000.0001) // =======================================================
 cg2d: Sum(rhs),rhsMax =   4.50778191304224E+00  2.99979183664826E+02
(PID.TID 0000.0001)      cg2d_init_res =   1.40499741023102E-05
(PID.TID 0000.0001)      cg2d_iters(min,last) =      -1      85
(PID.TID 0000.0001)      cg2d_last_res =   9.72809308518259E-12
(PID.TID 0000.0001) // =======================================================
(PID.TID 0000.0001) // Begin MONITOR dynamic field statistics
(PID.TID 0000.0001) // =======================================================
(PID.TID 0000.0001) %MON time_tsnumber                =                  1634
(PID.TID 0000.0001) %MON time_secondsf                =   1.6340000000000E+05
(PID.TID 0000.0001) %MON dynstat_eta_max              =   5.8105783713123E+00
(PID.TID 0000.0001) %MON dynstat_eta_min              =  -1.4198769312877E+01
(PID.TID 0000.0001) %MON dynstat_eta_mean             =  -2.5041495155805E+00
(PID.TID 0000.0001) %MON dynstat_eta_sd               =   4.9502571436341E+00
(PID.TID 0000.0001) %MON dynstat_eta_del2             =   2.0717974876295E-01
(PID.TID 0000.0001) %MON dynstat_uvel_max             =   1.9227236238041E-02
(PID.TID 0000.0001) %MON dynstat_uvel_min             =  -8.3647156991494E-02
(PID.TID 0000.0001) %MON dynstat_uvel_mean            =  -1.0059327271500E-07
(PID.TID 0000.0001) %MON dynstat_uvel_sd              =   2.5034111553342E-03
(PID.TID 0000.0001) %MON dynstat_uvel_del2            =   4.0610829807482E-06
(PID.TID 0000.0001) %MON dynstat_vvel_max             =   4.5868939142223E-02
(PID.TID 0000.0001) %MON dynstat_vvel_min             =  -3.0474709680092E-02
(PID.TID 0000.0001) %MON dynstat_vvel_mean            =   1.5320724658705E-05
(PID.TID 0000.0001) %MON dynstat_vvel_sd              =   1.2753057167010E-03
(PID.TID 0000.0001) %MON dynstat_vvel_del2            =   2.6532776524265E-06
(PID.TID 0000.0001) %MON dynstat_wvel_max             =   2.6172020796915E-03
(PID.TID 0000.0001) %MON dynstat_wvel_min             =  -2.5786942074155E-03
(PID.TID 0000.0001) %MON dynstat_wvel_mean            =   7.6195932869826E-09
(PID.TID 0000.0001) %MON dynstat_wvel_sd              =   4.6420277236233E-05
(PID.TID 0000.0001) %MON dynstat_wvel_del2            =   1.7834570555377E-07
(PID.TID 0000.0001) %MON dynstat_theta_max            =   1.2000000000000E+00
(PID.TID 0000.0001) %MON dynstat_theta_min            =  -1.0000000000000E+00
(PID.TID 0000.0001) %MON dynstat_theta_mean           =   5.6789199560367E-01
(PID.TID 0000.0001) %MON dynstat_theta_sd             =   8.6794555718467E-01
(PID.TID 0000.0001) %MON dynstat_theta_del2           =   8.1999158886654E-06
(PID.TID 0000.0001) %MON dynstat_salt_max             =   3.4700000000000E+01
(PID.TID 0000.0001) %MON dynstat_salt_min             =   3.4000000000000E+01
(PID.TID 0000.0001) %MON dynstat_salt_mean            =   3.4498770733284E+01
(PID.TID 0000.0001) %MON dynstat_salt_sd              =   2.7612354802856E-01
(PID.TID 0000.0001) %MON dynstat_salt_del2            =   3.2524953888727E-06
(PID.TID 0000.0001) %MON advcfl_uvel_max              =   8.3647156991495E-03
(PID.TID 0000.0001) %MON advcfl_vvel_max              =   4.5868939142223E-03
(PID.TID 0000.0001) %MON advcfl_wvel_max              =   1.3086010398457E-02
(PID.TID 0000.0001) %MON advcfl_W_hf_max              =   1.3086010398457E-02
(PID.TID 0000.0001) %MON pe_b_mean                    =  -8.2951255844164E-01
(PID.TID 0000.0001) %MON ke_max                       =   3.1688723688173E-03
(PID.TID 0000.0001) %MON ke_mean                      =   3.8847015602034E-06
(PID.TID 0000.0001) %MON ke_vol                       =   4.2724653369910E+12
(PID.TID 0000.0001) // =======================================================
(PID.TID 0000.0001) // End MONITOR dynamic field statistics
(PID.TID 0000.0001) // =======================================================
(PID.TID 0000.0001) // =======================================================
(PID.TID 0000.0001) // Begin OBCS MONITOR field statistics
(PID.TID 0000.0001) // =======================================================
(PID.TID 0000.0001) %MON obc_N_vVel_max               =   1.4986904916367E-05
(PID.TID 0000.0001) %MON obc_N_vVel_min               =   1.4986904916367E-05
(PID.TID 0000.0001) %MON obc_N_vVel_mean              =   1.4986904916367E-05
(PID.TID 0000.0001) %MON obc_N_vVel_sd                =   3.8182533043588E-12
(PID.TID 0000.0001) %MON obc_N_vVel_Int               =   9.8913572448023E+02
(PID.TID 0000.0001) // =======================================================
(PID.TID 0000.0001) // End OBCS MONITOR field statistics
(PID.TID 0000.0001) // =======================================================
 cg2d: Sum(rhs),rhsMax =   4.50777608331137E+00  2.99979267734915E+02
(PID.TID 0000.0001)      cg2d_init_res =   1.40691448688168E-05
(PID.TID 0000.0001)      cg2d_iters(min,last) =      -1      85
(PID.TID 0000.0001)      cg2d_last_res =   9.74075501149039E-12
(PID.TID 0000.0001) // =======================================================
(PID.TID 0000.0001) // Begin MONITOR dynamic field statistics
(PID.TID 0000.0001) // =======================================================
(PID.TID 0000.0001) %MON time_tsnumber                =                  1635
(PID.TID 0000.0001) %MON time_secondsf                =   1.6350000000000E+05
(PID.TID 0000.0001) %MON dynstat_eta_max              =   5.8107011381943E+00
(PID.TID 0000.0001) %MON dynstat_eta_min              =  -1.4198799091728E+01
(PID.TID 0000.0001) %MON dynstat_eta_mean             =  -2.5041469788606E+00
(PID.TID 0000.0001) %MON dynstat_eta_sd               =   4.9502570917065E+00
(PID.TID 0000.0001) %MON dynstat_eta_del2             =   2.0717982012098E-01
(PID.TID 0000.0001) %MON dynstat_uvel_max             =   1.9265201879445E-02
(PID.TID 0000.0001) %MON dynstat_uvel_min             =  -8.3818623558317E-02
(PID.TID 0000.0001) %MON dynstat_uvel_mean            =  -1.0059533622565E-07
(PID.TID 0000.0001) %MON dynstat_uvel_sd              =   2.5082524922097E-03
(PID.TID 0000.0001) %MON dynstat_uvel_del2            =   4.0705232674532E-06
(PID.TID 0000.0001) %MON dynstat_vvel_max             =   4.5907752420753E-02
(PID.TID 0000.0001) %MON dynstat_vvel_min             =  -3.0534216261756E-02
(PID.TID 0000.0001) %MON dynstat_vvel_mean            =   1.5320575056294E-05
(PID.TID 0000.0001) %MON dynstat_vvel_sd              =   1.2776342582671E-03
(PID.TID 0000.0001) %MON dynstat_vvel_del2            =   2.6582016795890E-06
(PID.TID 0000.0001) %MON dynstat_wvel_max             =   2.6197374095367E-03
(PID.TID 0000.0001) %MON dynstat_wvel_min             =  -2.5807319027518E-03
(PID.TID 0000.0001) %MON dynstat_wvel_mean            =   7.6251862167351E-09
(PID.TID 0000.0001) %MON dynstat_wvel_sd              =   4.6498166301763E-05
(PID.TID 0000.0001) %MON dynstat_wvel_del2            =   1.7860802116757E-07
(PID.TID 0000.0001) %MON dynstat_theta_max            =   1.2000000000000E+00
(PID.TID 0000.0001) %MON dynstat_theta_min            =  -1.0000000000000E+00
(PID.TID 0000.0001) %MON dynstat_theta_mean           =   5.6788970290294E-01
(PID.TID 0000.0001) %MON dynstat_theta_sd             =   8.6794443249134E-01
(PID.TID 0000.0001) %MON dynstat_theta_del2           =   8.2136942378501E-06
(PID.TID 0000.0001) %MON dynstat_salt_max             =   3.4700000000000E+01
(PID.TID 0000.0001) %MON dynstat_salt_min             =   3.4000000000000E+01
(PID.TID 0000.0001) %MON dynstat_salt_mean            =   3.4498769815549E+01
(PID.TID 0000.0001) %MON dynstat_salt_sd              =   2.7612312475895E-01
(PID.TID 0000.0001) %MON dynstat_salt_del2            =   3.2579718846801E-06
(PID.TID 0000.0001) %MON advcfl_uvel_max              =   8.3818623558317E-03
(PID.TID 0000.0001) %MON advcfl_vvel_max              =   4.5907752420753E-03
(PID.TID 0000.0001) %MON advcfl_wvel_max              =   1.3098687047684E-02
(PID.TID 0000.0001) %MON advcfl_W_hf_max              =   1.3098687047684E-02
(PID.TID 0000.0001) %MON pe_b_mean                    =  -8.2951078900391E-01
(PID.TID 0000.0001) %MON ke_max                       =   3.1805411606561E-03
(PID.TID 0000.0001) %MON ke_mean                      =   3.8995648447146E-06
(PID.TID 0000.0001) %MON ke_vol                       =   4.2724653518775E+12
(PID.TID 0000.0001) // =======================================================
(PID.TID 0000.0001) // End MONITOR dynamic field statistics
(PID.TID 0000.0001) // =======================================================
(PID.TID 0000.0001) // =======================================================
(PID.TID 0000.0001) // Begin OBCS MONITOR field statistics
(PID.TID 0000.0001) // =======================================================
(PID.TID 0000.0001) %MON obc_N_vVel_max               =   1.4986299570294E-05
(PID.TID 0000.0001) %MON obc_N_vVel_min               =   1.4986299570294E-05
(PID.TID 0000.0001) %MON obc_N_vVel_mean              =   1.4986299570294E-05
(PID.TID 0000.0001) %MON obc_N_vVel_sd                =   3.6486213811898E-12
(PID.TID 0000.0001) %MON obc_N_vVel_Int               =   9.8909577163939E+02
(PID.TID 0000.0001) // =======================================================
(PID.TID 0000.0001) // End OBCS MONITOR field statistics
(PID.TID 0000.0001) // =======================================================
 cg2d: Sum(rhs),rhsMax =   4.50777019838754E+00  2.99979351886411E+02
(PID.TID 0000.0001)      cg2d_init_res =   1.40885971766866E-05
(PID.TID 0000.0001)      cg2d_iters(min,last) =      -1      85
(PID.TID 0000.0001)      cg2d_last_res =   9.75377734643534E-12
(PID.TID 0000.0001) // =======================================================
(PID.TID 0000.0001) // Begin MONITOR dynamic field statistics
(PID.TID 0000.0001) // =======================================================
(PID.TID 0000.0001) %MON time_tsnumber                =                  1636
(PID.TID 0000.0001) %MON time_secondsf                =   1.6360000000000E+05
(PID.TID 0000.0001) %MON dynstat_eta_max              =   5.8108241747849E+00
(PID.TID 0000.0001) %MON dynstat_eta_min              =  -1.4198828870872E+01
(PID.TID 0000.0001) %MON dynstat_eta_mean             =  -2.5041444121577E+00
(PID.TID 0000.0001) %MON dynstat_eta_sd               =   4.9502570314214E+00
(PID.TID 0000.0001) %MON dynstat_eta_del2             =   2.0717989156865E-01
(PID.TID 0000.0001) %MON dynstat_uvel_max             =   1.9303218453182E-02
(PID.TID 0000.0001) %MON dynstat_uvel_min             =  -8.3990207094146E-02
(PID.TID 0000.0001) %MON dynstat_uvel_mean            =  -1.0059813110733E-07
(PID.TID 0000.0001) %MON dynstat_uvel_sd              =   2.5130993872676E-03
(PID.TID 0000.0001) %MON dynstat_uvel_del2            =   4.0799814351533E-06
(PID.TID 0000.0001) %MON dynstat_vvel_max             =   4.5946497662308E-02
(PID.TID 0000.0001) %MON dynstat_vvel_min             =  -3.0593729500760E-02
(PID.TID 0000.0001) %MON dynstat_vvel_mean            =   1.5321076351628E-05
(PID.TID 0000.0001) %MON dynstat_vvel_sd              =   1.2799665415797E-03
(PID.TID 0000.0001) %MON dynstat_vvel_del2            =   2.6631347208686E-06
(PID.TID 0000.0001) %MON dynstat_wvel_max             =   2.6222683269644E-03
(PID.TID 0000.0001) %MON dynstat_wvel_min             =  -2.5827473584731E-03
(PID.TID 0000.0001) %MON dynstat_wvel_mean            =   7.6316652083011E-09
(PID.TID 0000.0001) %MON dynstat_wvel_sd              =   4.6577356529416E-05
(PID.TID 0000.0001) %MON dynstat_wvel_del2            =   1.7887544364541E-07
(PID.TID 0000.0001) %MON dynstat_theta_max            =   1.2000000000000E+00
(PID.TID 0000.0001) %MON dynstat_theta_min            =  -1.0000000000000E+00
(PID.TID 0000.0001) %MON dynstat_theta_mean           =   5.6788740662127E-01
(PID.TID 0000.0001) %MON dynstat_theta_sd             =   8.6794330641857E-01
(PID.TID 0000.0001) %MON dynstat_theta_del2           =   8.2274830072710E-06
(PID.TID 0000.0001) %MON dynstat_salt_max             =   3.4700000000000E+01
(PID.TID 0000.0001) %MON dynstat_salt_min             =   3.4000000000000E+01
(PID.TID 0000.0001) %MON dynstat_salt_mean            =   3.4498768896380E+01
(PID.TID 0000.0001) %MON dynstat_salt_sd              =   2.7612270101403E-01
(PID.TID 0000.0001) %MON dynstat_salt_del2            =   3.2634534700674E-06
(PID.TID 0000.0001) %MON advcfl_uvel_max              =   8.3990207094146E-03
(PID.TID 0000.0001) %MON advcfl_vvel_max              =   4.5946497662308E-03
(PID.TID 0000.0001) %MON advcfl_wvel_max              =   1.3111341634822E-02
(PID.TID 0000.0001) %MON advcfl_W_hf_max              =   1.3111341634822E-02
(PID.TID 0000.0001) %MON pe_b_mean                    =  -8.2950900930414E-01
(PID.TID 0000.0001) %MON ke_max                       =   3.1922355879867E-03
(PID.TID 0000.0001) %MON ke_mean                      =   3.9144750153704E-06
(PID.TID 0000.0001) %MON ke_vol                       =   4.2724653669456E+12
(PID.TID 0000.0001) // =======================================================
(PID.TID 0000.0001) // End MONITOR dynamic field statistics
(PID.TID 0000.0001) // =======================================================
(PID.TID 0000.0001) // =======================================================
(PID.TID 0000.0001) // Begin OBCS MONITOR field statistics
(PID.TID 0000.0001) // =======================================================
(PID.TID 0000.0001) %MON obc_N_vVel_max               =   1.4986249986856E-05
(PID.TID 0000.0001) %MON obc_N_vVel_min               =   1.4986249986855E-05
(PID.TID 0000.0001) %MON obc_N_vVel_mean              =   1.4986249986856E-05
(PID.TID 0000.0001) %MON obc_N_vVel_sd                =  -4.1100536686229E-24
(PID.TID 0000.0001) %MON obc_N_vVel_Int               =   9.8909249913247E+02
(PID.TID 0000.0001) // =======================================================
(PID.TID 0000.0001) // End OBCS MONITOR field statistics
(PID.TID 0000.0001) // =======================================================
 cg2d: Sum(rhs),rhsMax =   4.50776425930771E+00  2.99979436121714E+02
(PID.TID 0000.0001)      cg2d_init_res =   1.41079710089234E-05
(PID.TID 0000.0001)      cg2d_iters(min,last) =      -1      85
(PID.TID 0000.0001)      cg2d_last_res =   9.76667074634845E-12
(PID.TID 0000.0001) // =======================================================
(PID.TID 0000.0001) // Begin MONITOR dynamic field statistics
(PID.TID 0000.0001) // =======================================================
(PID.TID 0000.0001) %MON time_tsnumber                =                  1637
(PID.TID 0000.0001) %MON time_secondsf                =   1.6370000000000E+05
(PID.TID 0000.0001) %MON dynstat_eta_max              =   5.8109474798549E+00
(PID.TID 0000.0001) %MON dynstat_eta_min              =  -1.4198858650853E+01
(PID.TID 0000.0001) %MON dynstat_eta_mean             =  -2.5041418160680E+00
(PID.TID 0000.0001) %MON dynstat_eta_sd               =   4.9502569629464E+00
(PID.TID 0000.0001) %MON dynstat_eta_del2             =   2.0717996310490E-01
(PID.TID 0000.0001) %MON dynstat_uvel_max             =   1.9341285951436E-02
(PID.TID 0000.0001) %MON dynstat_uvel_min             =  -8.4161906733273E-02
(PID.TID 0000.0001) %MON dynstat_uvel_mean            =  -1.0060087334708E-07
(PID.TID 0000.0001) %MON dynstat_uvel_sd              =   2.5179518322325E-03
(PID.TID 0000.0001) %MON dynstat_uvel_del2            =   4.0894574881064E-06
(PID.TID 0000.0001) %MON dynstat_vvel_max             =   4.5985174731253E-02
(PID.TID 0000.0001) %MON dynstat_vvel_min             =  -3.0653248364297E-02
(PID.TID 0000.0001) %MON dynstat_vvel_mean            =   1.5322220904562E-05
(PID.TID 0000.0001) %MON dynstat_vvel_sd              =   1.2823025250109E-03
(PID.TID 0000.0001) %MON dynstat_vvel_del2            =   2.6680765263140E-06
(PID.TID 0000.0001) %MON dynstat_wvel_max             =   2.6247948276488E-03
(PID.TID 0000.0001) %MON dynstat_wvel_min             =  -2.5847403431348E-03
(PID.TID 0000.0001) %MON dynstat_wvel_mean            =   7.6389129569191E-09
(PID.TID 0000.0001) %MON dynstat_wvel_sd              =   4.6657630268411E-05
(PID.TID 0000.0001) %MON dynstat_wvel_del2            =   1.7914742077594E-07
(PID.TID 0000.0001) %MON dynstat_theta_max            =   1.2000000000000E+00
(PID.TID 0000.0001) %MON dynstat_theta_min            =  -1.0000000000000E+00
(PID.TID 0000.0001) %MON dynstat_theta_mean           =   5.6788510675395E-01
(PID.TID 0000.0001) %MON dynstat_theta_sd             =   8.6794217896678E-01
(PID.TID 0000.0001) %MON dynstat_theta_del2           =   8.2412847349662E-06
(PID.TID 0000.0001) %MON dynstat_salt_max             =   3.4700000000000E+01
(PID.TID 0000.0001) %MON dynstat_salt_min             =   3.4000000000000E+01
(PID.TID 0000.0001) %MON dynstat_salt_mean            =   3.4498767975776E+01
(PID.TID 0000.0001) %MON dynstat_salt_sd              =   2.7612227679351E-01
(PID.TID 0000.0001) %MON dynstat_salt_del2            =   3.2689401996827E-06
(PID.TID 0000.0001) %MON advcfl_uvel_max              =   8.4161906733273E-03
(PID.TID 0000.0001) %MON advcfl_vvel_max              =   4.5985174731253E-03
(PID.TID 0000.0001) %MON advcfl_wvel_max              =   1.3123974138244E-02
(PID.TID 0000.0001) %MON advcfl_W_hf_max              =   1.3123974138244E-02
(PID.TID 0000.0001) %MON pe_b_mean                    =  -8.2950721949537E-01
(PID.TID 0000.0001) %MON ke_max                       =   3.2039556385149E-03
(PID.TID 0000.0001) %MON ke_mean                      =   3.9294321036515E-06
(PID.TID 0000.0001) %MON ke_vol                       =   4.2724653821918E+12
(PID.TID 0000.0001) // =======================================================
(PID.TID 0000.0001) // End MONITOR dynamic field statistics
(PID.TID 0000.0001) // =======================================================
(PID.TID 0000.0001) // =======================================================
(PID.TID 0000.0001) // Begin OBCS MONITOR field statistics
(PID.TID 0000.0001) // =======================================================
(PID.TID 0000.0001) %MON obc_N_vVel_max               =   1.4986758351787E-05
(PID.TID 0000.0001) %MON obc_N_vVel_min               =   1.4986758351787E-05
(PID.TID 0000.0001) %MON obc_N_vVel_mean              =   1.4986758351787E-05
(PID.TID 0000.0001) %MON obc_N_vVel_sd                =  -4.4202463983302E-24
(PID.TID 0000.0001) %MON obc_N_vVel_Int               =   9.8912605121793E+02
(PID.TID 0000.0001) // =======================================================
(PID.TID 0000.0001) // End OBCS MONITOR field statistics
(PID.TID 0000.0001) // =======================================================
 cg2d: Sum(rhs),rhsMax =   4.50775826709957E+00  2.99979520442332E+02
(PID.TID 0000.0001)      cg2d_init_res =   1.41274570725158E-05
(PID.TID 0000.0001)      cg2d_iters(min,last) =      -1      85
(PID.TID 0000.0001)      cg2d_last_res =   9.77963537252316E-12
(PID.TID 0000.0001) // =======================================================
(PID.TID 0000.0001) // Begin MONITOR dynamic field statistics
(PID.TID 0000.0001) // =======================================================
(PID.TID 0000.0001) %MON time_tsnumber                =                  1638
(PID.TID 0000.0001) %MON time_secondsf                =   1.6380000000000E+05
(PID.TID 0000.0001) %MON dynstat_eta_max              =   5.8110710521882E+00
(PID.TID 0000.0001) %MON dynstat_eta_min              =  -1.4198888432170E+01
(PID.TID 0000.0001) %MON dynstat_eta_mean             =  -2.5041391911750E+00
(PID.TID 0000.0001) %MON dynstat_eta_sd               =   4.9502568864547E+00
(PID.TID 0000.0001) %MON dynstat_eta_del2             =   2.0718003472991E-01
(PID.TID 0000.0001) %MON dynstat_uvel_max             =   1.9379404446678E-02
(PID.TID 0000.0001) %MON dynstat_uvel_min             =  -8.4333721604512E-02
(PID.TID 0000.0001) %MON dynstat_uvel_mean            =  -1.0060281310364E-07
(PID.TID 0000.0001) %MON dynstat_uvel_sd              =   2.5228098189382E-03
(PID.TID 0000.0001) %MON dynstat_uvel_del2            =   4.0989514310360E-06
(PID.TID 0000.0001) %MON dynstat_vvel_max             =   4.6023783489818E-02
(PID.TID 0000.0001) %MON dynstat_vvel_min             =  -3.0712771939783E-02
(PID.TID 0000.0001) %MON dynstat_vvel_mean            =   1.5323986169399E-05
(PID.TID 0000.0001) %MON dynstat_vvel_sd              =   1.2846421565053E-03
(PID.TID 0000.0001) %MON dynstat_vvel_del2            =   2.6730267945994E-06
(PID.TID 0000.0001) %MON dynstat_wvel_max             =   2.6273169073250E-03
(PID.TID 0000.0001) %MON dynstat_wvel_min             =  -2.5867106178357E-03
(PID.TID 0000.0001) %MON dynstat_wvel_mean            =   7.6467852401702E-09
(PID.TID 0000.0001) %MON dynstat_wvel_sd              =   4.6738722635845E-05
(PID.TID 0000.0001) %MON dynstat_wvel_del2            =   1.7942316753830E-07
(PID.TID 0000.0001) %MON dynstat_theta_max            =   1.2000000000000E+00
(PID.TID 0000.0001) %MON dynstat_theta_min            =  -1.0000000000000E+00
(PID.TID 0000.0001) %MON dynstat_theta_mean           =   5.6788280329621E-01
(PID.TID 0000.0001) %MON dynstat_theta_sd             =   8.6794105013532E-01
(PID.TID 0000.0001) %MON dynstat_theta_del2           =   8.2550993657925E-06
(PID.TID 0000.0001) %MON dynstat_salt_max             =   3.4700000000000E+01
(PID.TID 0000.0001) %MON dynstat_salt_min             =   3.4000000000000E+01
(PID.TID 0000.0001) %MON dynstat_salt_mean            =   3.4498767053735E+01
(PID.TID 0000.0001) %MON dynstat_salt_sd              =   2.7612185209681E-01
(PID.TID 0000.0001) %MON dynstat_salt_del2            =   3.2744312232161E-06
(PID.TID 0000.0001) %MON advcfl_uvel_max              =   8.4333721604512E-03
(PID.TID 0000.0001) %MON advcfl_vvel_max              =   4.6023783489818E-03
(PID.TID 0000.0001) %MON advcfl_wvel_max              =   1.3136584536625E-02
(PID.TID 0000.0001) %MON advcfl_W_hf_max              =   1.3136584536625E-02
(PID.TID 0000.0001) %MON pe_b_mean                    =  -8.2950541972363E-01
(PID.TID 0000.0001) %MON ke_max                       =   3.2157013004288E-03
(PID.TID 0000.0001) %MON ke_mean                      =   3.9444361272744E-06
(PID.TID 0000.0001) %MON ke_vol                       =   4.2724653976126E+12
(PID.TID 0000.0001) // =======================================================
(PID.TID 0000.0001) // End MONITOR dynamic field statistics
(PID.TID 0000.0001) // =======================================================
(PID.TID 0000.0001) // =======================================================
(PID.TID 0000.0001) // Begin OBCS MONITOR field statistics
(PID.TID 0000.0001) // =======================================================
(PID.TID 0000.0001) %MON obc_N_vVel_max               =   1.4987813949558E-05
(PID.TID 0000.0001) %MON obc_N_vVel_min               =   1.4987813949558E-05
(PID.TID 0000.0001) %MON obc_N_vVel_mean              =   1.4987813949558E-05
(PID.TID 0000.0001) %MON obc_N_vVel_sd                =   2.2103247482873E-12
(PID.TID 0000.0001) %MON obc_N_vVel_Int               =   9.8919572067081E+02
(PID.TID 0000.0001) // =======================================================
(PID.TID 0000.0001) // End OBCS MONITOR field statistics
(PID.TID 0000.0001) // =======================================================
 cg2d: Sum(rhs),rhsMax =   4.50775222276006E+00  2.99979604848769E+02
(PID.TID 0000.0001)      cg2d_init_res =   1.41469052888819E-05
(PID.TID 0000.0001)      cg2d_iters(min,last) =      -1      85
(PID.TID 0000.0001)      cg2d_last_res =   9.79246577894341E-12
(PID.TID 0000.0001) // =======================================================
(PID.TID 0000.0001) // Begin MONITOR dynamic field statistics
(PID.TID 0000.0001) // =======================================================
(PID.TID 0000.0001) %MON time_tsnumber                =                  1639
(PID.TID 0000.0001) %MON time_secondsf                =   1.6390000000000E+05
(PID.TID 0000.0001) %MON dynstat_eta_max              =   5.8111948906465E+00
(PID.TID 0000.0001) %MON dynstat_eta_min              =  -1.4198918215288E+01
(PID.TID 0000.0001) %MON dynstat_eta_mean             =  -2.5041365380365E+00
(PID.TID 0000.0001) %MON dynstat_eta_sd               =   4.9502568020892E+00
(PID.TID 0000.0001) %MON dynstat_eta_del2             =   2.0718010644247E-01
(PID.TID 0000.0001) %MON dynstat_uvel_max             =   1.9417573998927E-02
(PID.TID 0000.0001) %MON dynstat_uvel_min             =  -8.4505650826870E-02
(PID.TID 0000.0001) %MON dynstat_uvel_mean            =  -1.0060329076826E-07
(PID.TID 0000.0001) %MON dynstat_uvel_sd              =   2.5276733390205E-03
(PID.TID 0000.0001) %MON dynstat_uvel_del2            =   4.1084632534570E-06
(PID.TID 0000.0001) %MON dynstat_vvel_max             =   4.6062323798224E-02
(PID.TID 0000.0001) %MON dynstat_vvel_min             =  -3.0772299221530E-02
(PID.TID 0000.0001) %MON dynstat_vvel_mean            =   1.5326335316134E-05
(PID.TID 0000.0001) %MON dynstat_vvel_sd              =   1.2869853777069E-03
(PID.TID 0000.0001) %MON dynstat_vvel_del2            =   2.6779852046106E-06
(PID.TID 0000.0001) %MON dynstat_wvel_max             =   2.6298345618099E-03
(PID.TID 0000.0001) %MON dynstat_wvel_min             =  -2.5886579550200E-03
(PID.TID 0000.0001) %MON dynstat_wvel_mean            =   7.6551308610816E-09
(PID.TID 0000.0001) %MON dynstat_wvel_sd              =   4.6820335228446E-05
(PID.TID 0000.0001) %MON dynstat_wvel_del2            =   1.7970170491895E-07
(PID.TID 0000.0001) %MON dynstat_theta_max            =   1.2000000000000E+00
(PID.TID 0000.0001) %MON dynstat_theta_min            =  -1.0000000000000E+00
(PID.TID 0000.0001) %MON dynstat_theta_mean           =   5.6788049624337E-01
(PID.TID 0000.0001) %MON dynstat_theta_sd             =   8.6793991992352E-01
(PID.TID 0000.0001) %MON dynstat_theta_del2           =   8.2689265023566E-06
(PID.TID 0000.0001) %MON dynstat_salt_max             =   3.4700000000000E+01
(PID.TID 0000.0001) %MON dynstat_salt_min             =   3.4000000000000E+01
(PID.TID 0000.0001) %MON dynstat_salt_mean            =   3.4498766130256E+01
(PID.TID 0000.0001) %MON dynstat_salt_sd              =   2.7612142692464E-01
(PID.TID 0000.0001) %MON dynstat_salt_del2            =   3.2799274671416E-06
(PID.TID 0000.0001) %MON advcfl_uvel_max              =   8.4505650826870E-03
(PID.TID 0000.0001) %MON advcfl_vvel_max              =   4.6062323798224E-03
(PID.TID 0000.0001) %MON advcfl_wvel_max              =   1.3149172809050E-02
(PID.TID 0000.0001) %MON advcfl_W_hf_max              =   1.3149172809050E-02
(PID.TID 0000.0001) %MON pe_b_mean                    =  -8.2950361012487E-01
(PID.TID 0000.0001) %MON ke_max                       =   3.2274725617318E-03
(PID.TID 0000.0001) %MON ke_mean                      =   3.9594870946293E-06
(PID.TID 0000.0001) %MON ke_vol                       =   4.2724654132044E+12
(PID.TID 0000.0001) // =======================================================
(PID.TID 0000.0001) // End MONITOR dynamic field statistics
(PID.TID 0000.0001) // =======================================================
(PID.TID 0000.0001) // =======================================================
(PID.TID 0000.0001) // Begin OBCS MONITOR field statistics
(PID.TID 0000.0001) // =======================================================
(PID.TID 0000.0001) %MON obc_N_vVel_max               =   1.4989393313366E-05
(PID.TID 0000.0001) %MON obc_N_vVel_min               =   1.4989393313366E-05
(PID.TID 0000.0001) %MON obc_N_vVel_mean              =   1.4989393313366E-05
(PID.TID 0000.0001) %MON obc_N_vVel_sd                =   3.5040636720220E-12
(PID.TID 0000.0001) %MON obc_N_vVel_Int               =   9.8929995868213E+02
(PID.TID 0000.0001) // =======================================================
(PID.TID 0000.0001) // End OBCS MONITOR field statistics
(PID.TID 0000.0001) // =======================================================
 cg2d: Sum(rhs),rhsMax =   4.50774612722958E+00  2.99979689340594E+02
(PID.TID 0000.0001)      cg2d_init_res =   1.41664499467066E-05
(PID.TID 0000.0001)      cg2d_iters(min,last) =      -1      85
(PID.TID 0000.0001)      cg2d_last_res =   9.80518321503340E-12
(PID.TID 0000.0001) // =======================================================
(PID.TID 0000.0001) // Begin MONITOR dynamic field statistics
(PID.TID 0000.0001) // =======================================================
(PID.TID 0000.0001) %MON time_tsnumber                =                  1640
(PID.TID 0000.0001) %MON time_secondsf                =   1.6400000000000E+05
(PID.TID 0000.0001) %MON dynstat_eta_max              =   5.8113189942106E+00
(PID.TID 0000.0001) %MON dynstat_eta_min              =  -1.4198948000583E+01
(PID.TID 0000.0001) %MON dynstat_eta_mean             =  -2.5041338571715E+00
(PID.TID 0000.0001) %MON dynstat_eta_sd               =   4.9502567099871E+00
(PID.TID 0000.0001) %MON dynstat_eta_del2             =   2.0718017824381E-01
(PID.TID 0000.0001) %MON dynstat_uvel_max             =   1.9455794660784E-02
(PID.TID 0000.0001) %MON dynstat_uvel_min             =  -8.4677693508736E-02
(PID.TID 0000.0001) %MON dynstat_uvel_mean            =  -1.0060157533621E-07
(PID.TID 0000.0001) %MON dynstat_uvel_sd              =   2.5325423840439E-03
(PID.TID 0000.0001) %MON dynstat_uvel_del2            =   4.1179929581670E-06
(PID.TID 0000.0001) %MON dynstat_vvel_max             =   4.6100795514941E-02
(PID.TID 0000.0001) %MON dynstat_vvel_min             =  -3.0831829220991E-02
(PID.TID 0000.0001) %MON dynstat_vvel_mean            =   1.5329218186477E-05
(PID.TID 0000.0001) %MON dynstat_vvel_sd              =   1.2893321261812E-03
(PID.TID 0000.0001) %MON dynstat_vvel_del2            =   2.6829514051620E-06
(PID.TID 0000.0001) %MON dynstat_wvel_max             =   2.6323477869952E-03
(PID.TID 0000.0001) %MON dynstat_wvel_min             =  -2.5905821227006E-03
(PID.TID 0000.0001) %MON dynstat_wvel_mean            =   7.6637861852839E-09
(PID.TID 0000.0001) %MON dynstat_wvel_sd              =   4.6902152373025E-05
(PID.TID 0000.0001) %MON dynstat_wvel_del2            =   1.7998192031359E-07
(PID.TID 0000.0001) %MON dynstat_theta_max            =   1.2000000000000E+00
(PID.TID 0000.0001) %MON dynstat_theta_min            =  -1.0000000000000E+00
(PID.TID 0000.0001) %MON dynstat_theta_mean           =   5.6787818559085E-01
(PID.TID 0000.0001) %MON dynstat_theta_sd             =   8.6793878833133E-01
(PID.TID 0000.0001) %MON dynstat_theta_del2           =   8.2827656865057E-06
(PID.TID 0000.0001) %MON dynstat_salt_max             =   3.4700000000000E+01
(PID.TID 0000.0001) %MON dynstat_salt_min             =   3.4000000000000E+01
(PID.TID 0000.0001) %MON dynstat_salt_mean            =   3.4498765205336E+01
(PID.TID 0000.0001) %MON dynstat_salt_sd              =   2.7612100127740E-01
(PID.TID 0000.0001) %MON dynstat_salt_del2            =   3.2854291447080E-06
(PID.TID 0000.0001) %MON advcfl_uvel_max              =   8.4677693508736E-03
(PID.TID 0000.0001) %MON advcfl_vvel_max              =   4.6100795514941E-03
(PID.TID 0000.0001) %MON advcfl_wvel_max              =   1.3161738934976E-02
(PID.TID 0000.0001) %MON advcfl_W_hf_max              =   1.3161738934976E-02
(PID.TID 0000.0001) %MON pe_b_mean                    =  -8.2950179082161E-01
(PID.TID 0000.0001) %MON ke_max                       =   3.2392694102764E-03
(PID.TID 0000.0001) %MON ke_mean                      =   3.9745850078918E-06
(PID.TID 0000.0001) %MON ke_vol                       =   4.2724654289641E+12
(PID.TID 0000.0001) // =======================================================
(PID.TID 0000.0001) // End MONITOR dynamic field statistics
(PID.TID 0000.0001) // =======================================================
(PID.TID 0000.0001) // =======================================================
(PID.TID 0000.0001) // Begin OBCS MONITOR field statistics
(PID.TID 0000.0001) // =======================================================
(PID.TID 0000.0001) %MON obc_N_vVel_max               =   1.4991460954992E-05
(PID.TID 0000.0001) %MON obc_N_vVel_min               =   1.4991460954992E-05
(PID.TID 0000.0001) %MON obc_N_vVel_mean              =   1.4991460954992E-05
(PID.TID 0000.0001) %MON obc_N_vVel_sd                =   4.1802141619997E-12
(PID.TID 0000.0001) %MON obc_N_vVel_Int               =   9.8943642302945E+02
(PID.TID 0000.0001) // =======================================================
(PID.TID 0000.0001) // End OBCS MONITOR field statistics
(PID.TID 0000.0001) // =======================================================
 cg2d: Sum(rhs),rhsMax =   4.50773998137179E+00  2.99979773916299E+02
(PID.TID 0000.0001)      cg2d_init_res =   1.41859861889813E-05
(PID.TID 0000.0001)      cg2d_iters(min,last) =      -1      85
(PID.TID 0000.0001)      cg2d_last_res =   9.81767081746524E-12
(PID.TID 0000.0001) // =======================================================
(PID.TID 0000.0001) // Begin MONITOR dynamic field statistics
(PID.TID 0000.0001) // =======================================================
(PID.TID 0000.0001) %MON time_tsnumber                =                  1641
(PID.TID 0000.0001) %MON time_secondsf                =   1.6410000000000E+05
(PID.TID 0000.0001) %MON dynstat_eta_max              =   5.8114433619961E+00
(PID.TID 0000.0001) %MON dynstat_eta_min              =  -1.4198977788364E+01
(PID.TID 0000.0001) %MON dynstat_eta_mean             =  -2.5041311490470E+00
(PID.TID 0000.0001) %MON dynstat_eta_sd               =   4.9502566102528E+00
(PID.TID 0000.0001) %MON dynstat_eta_del2             =   2.0718025013425E-01
(PID.TID 0000.0001) %MON dynstat_uvel_max             =   1.9494066485620E-02
(PID.TID 0000.0001) %MON dynstat_uvel_min             =  -8.4849848749732E-02
(PID.TID 0000.0001) %MON dynstat_uvel_mean            =  -1.0059704297788E-07
(PID.TID 0000.0001) %MON dynstat_uvel_sd              =   2.5374169454848E-03
(PID.TID 0000.0001) %MON dynstat_uvel_del2            =   4.1275405529237E-06
(PID.TID 0000.0001) %MON dynstat_vvel_max             =   4.6139198497013E-02
(PID.TID 0000.0001) %MON dynstat_vvel_min             =  -3.0891360948027E-02
(PID.TID 0000.0001) %MON dynstat_vvel_mean            =   1.5332572638595E-05
(PID.TID 0000.0001) %MON dynstat_vvel_sd              =   1.2916823390455E-03
(PID.TID 0000.0001) %MON dynstat_vvel_del2            =   2.6879250428439E-06
(PID.TID 0000.0001) %MON dynstat_wvel_max             =   2.6348565788687E-03
(PID.TID 0000.0001) %MON dynstat_wvel_min             =  -2.5924828905399E-03
(PID.TID 0000.0001) %MON dynstat_wvel_mean            =   7.6725831509995E-09
(PID.TID 0000.0001) %MON dynstat_wvel_sd              =   4.6983857883354E-05
(PID.TID 0000.0001) %MON dynstat_wvel_del2            =   1.8026263507290E-07
(PID.TID 0000.0001) %MON dynstat_theta_max            =   1.2000000000000E+00
(PID.TID 0000.0001) %MON dynstat_theta_min            =  -1.0000000000000E+00
(PID.TID 0000.0001) %MON dynstat_theta_mean           =   5.6787587133415E-01
(PID.TID 0000.0001) %MON dynstat_theta_sd             =   8.6793765536014E-01
(PID.TID 0000.0001) %MON dynstat_theta_del2           =   8.2966186802495E-06
(PID.TID 0000.0001) %MON dynstat_salt_max             =   3.4700000000000E+01
(PID.TID 0000.0001) %MON dynstat_salt_min             =   3.4000000000000E+01
(PID.TID 0000.0001) %MON dynstat_salt_mean            =   3.4498764278975E+01
(PID.TID 0000.0001) %MON dynstat_salt_sd              =   2.7612057515541E-01
(PID.TID 0000.0001) %MON dynstat_salt_del2            =   3.2909363604637E-06
(PID.TID 0000.0001) %MON advcfl_uvel_max              =   8.4849848749732E-03
(PID.TID 0000.0001) %MON advcfl_vvel_max              =   4.6139198497013E-03
(PID.TID 0000.0001) %MON advcfl_wvel_max              =   1.3174282894343E-02
(PID.TID 0000.0001) %MON advcfl_W_hf_max              =   1.3174282894343E-02
(PID.TID 0000.0001) %MON pe_b_mean                    =  -8.2949996191986E-01
(PID.TID 0000.0001) %MON ke_max                       =   3.2510918339692E-03
(PID.TID 0000.0001) %MON ke_mean                      =   3.9897298676379E-06
(PID.TID 0000.0001) %MON ke_vol                       =   4.2724654448884E+12
(PID.TID 0000.0001) // =======================================================
(PID.TID 0000.0001) // End MONITOR dynamic field statistics
(PID.TID 0000.0001) // =======================================================
(PID.TID 0000.0001) // =======================================================
(PID.TID 0000.0001) // Begin OBCS MONITOR field statistics
(PID.TID 0000.0001) // =======================================================
(PID.TID 0000.0001) %MON obc_N_vVel_max               =   1.4993970318633E-05
(PID.TID 0000.0001) %MON obc_N_vVel_min               =   1.4993970318633E-05
(PID.TID 0000.0001) %MON obc_N_vVel_mean              =   1.4993970318633E-05
(PID.TID 0000.0001) %MON obc_N_vVel_sd                =  -1.1580528575742E-23
(PID.TID 0000.0001) %MON obc_N_vVel_Int               =   9.8960204102979E+02
(PID.TID 0000.0001) // =======================================================
(PID.TID 0000.0001) // End OBCS MONITOR field statistics
(PID.TID 0000.0001) // =======================================================
 cg2d: Sum(rhs),rhsMax =   4.50773378594985E+00  2.99979858573549E+02
(PID.TID 0000.0001)      cg2d_init_res =   1.42054464756994E-05
(PID.TID 0000.0001)      cg2d_iters(min,last) =      -1      85
(PID.TID 0000.0001)      cg2d_last_res =   9.82983061350273E-12
(PID.TID 0000.0001) // =======================================================
(PID.TID 0000.0001) // Begin MONITOR dynamic field statistics
(PID.TID 0000.0001) // =======================================================
(PID.TID 0000.0001) %MON time_tsnumber                =                  1642
(PID.TID 0000.0001) %MON time_secondsf                =   1.6420000000000E+05
(PID.TID 0000.0001) %MON dynstat_eta_max              =   5.8115679932525E+00
(PID.TID 0000.0001) %MON dynstat_eta_min              =  -1.4199007578871E+01
(PID.TID 0000.0001) %MON dynstat_eta_mean             =  -2.5041284140675E+00
(PID.TID 0000.0001) %MON dynstat_eta_sd               =   4.9502565029569E+00
(PID.TID 0000.0001) %MON dynstat_eta_del2             =   2.0718032211342E-01
(PID.TID 0000.0001) %MON dynstat_uvel_max             =   1.9532389528511E-02
(PID.TID 0000.0001) %MON dynstat_uvel_min             =  -8.5022115643119E-02
(PID.TID 0000.0001) %MON dynstat_uvel_mean            =  -1.0058916793688E-07
(PID.TID 0000.0001) %MON dynstat_uvel_sd              =   2.5422970146996E-03
(PID.TID 0000.0001) %MON dynstat_uvel_del2            =   4.1371060407028E-06
(PID.TID 0000.0001) %MON dynstat_vvel_max             =   4.6177532600425E-02
(PID.TID 0000.0001) %MON dynstat_vvel_min             =  -3.0950893405425E-02
(PID.TID 0000.0001) %MON dynstat_vvel_mean            =   1.5336326148637E-05
(PID.TID 0000.0001) %MON dynstat_vvel_sd              =   1.2940359565711E-03
(PID.TID 0000.0001) %MON dynstat_vvel_del2            =   2.6929057900096E-06
(PID.TID 0000.0001) %MON dynstat_wvel_max             =   2.6373609334793E-03
(PID.TID 0000.0001) %MON dynstat_wvel_min             =  -2.5943600293280E-03
(PID.TID 0000.0001) %MON dynstat_wvel_mean            =   7.6813524440650E-09
(PID.TID 0000.0001) %MON dynstat_wvel_sd              =   4.7065151572169E-05
(PID.TID 0000.0001) %MON dynstat_wvel_del2            =   1.8054267381110E-07
(PID.TID 0000.0001) %MON dynstat_theta_max            =   1.2000000000000E+00
(PID.TID 0000.0001) %MON dynstat_theta_min            =  -1.0000000000000E+00
(PID.TID 0000.0001) %MON dynstat_theta_mean           =   5.6787355346884E-01
(PID.TID 0000.0001) %MON dynstat_theta_sd             =   8.6793652101116E-01
(PID.TID 0000.0001) %MON dynstat_theta_del2           =   8.3104858746777E-06
(PID.TID 0000.0001) %MON dynstat_salt_max             =   3.4700000000000E+01
(PID.TID 0000.0001) %MON dynstat_salt_min             =   3.4000000000000E+01
(PID.TID 0000.0001) %MON dynstat_salt_mean            =   3.4498763351170E+01
(PID.TID 0000.0001) %MON dynstat_salt_sd              =   2.7612014855961E-01
(PID.TID 0000.0001) %MON dynstat_salt_del2            =   3.2964492191129E-06
(PID.TID 0000.0001) %MON advcfl_uvel_max              =   8.5022115643119E-03
(PID.TID 0000.0001) %MON advcfl_vvel_max              =   4.6177532600425E-03
(PID.TID 0000.0001) %MON advcfl_wvel_max              =   1.3186804667397E-02
(PID.TID 0000.0001) %MON advcfl_W_hf_max              =   1.3186804667397E-02
(PID.TID 0000.0001) %MON pe_b_mean                    =  -8.2949812350671E-01
(PID.TID 0000.0001) %MON ke_max                       =   3.2629398208988E-03
(PID.TID 0000.0001) %MON ke_mean                      =   4.0049216774401E-06
(PID.TID 0000.0001) %MON ke_vol                       =   4.2724654609747E+12
(PID.TID 0000.0001) // =======================================================
(PID.TID 0000.0001) // End MONITOR dynamic field statistics
(PID.TID 0000.0001) // =======================================================
(PID.TID 0000.0001) // =======================================================
(PID.TID 0000.0001) // Begin OBCS MONITOR field statistics
(PID.TID 0000.0001) // =======================================================
(PID.TID 0000.0001) %MON obc_N_vVel_max               =   1.4996865011233E-05
(PID.TID 0000.0001) %MON obc_N_vVel_min               =   1.4996865011233E-05
(PID.TID 0000.0001) %MON obc_N_vVel_mean              =   1.4996865011233E-05
(PID.TID 0000.0001) %MON obc_N_vVel_sd                =   1.1704776330802E-12
(PID.TID 0000.0001) %MON obc_N_vVel_Int               =   9.8979309074136E+02
(PID.TID 0000.0001) // =======================================================
(PID.TID 0000.0001) // End OBCS MONITOR field statistics
(PID.TID 0000.0001) // =======================================================
 cg2d: Sum(rhs),rhsMax =   4.50772754161021E+00  2.99979943309133E+02
(PID.TID 0000.0001)      cg2d_init_res =   1.42248172990157E-05
(PID.TID 0000.0001)      cg2d_iters(min,last) =      -1      85
(PID.TID 0000.0001)      cg2d_last_res =   9.84161825613358E-12
(PID.TID 0000.0001) // =======================================================
(PID.TID 0000.0001) // Begin MONITOR dynamic field statistics
(PID.TID 0000.0001) // =======================================================
(PID.TID 0000.0001) %MON time_tsnumber                =                  1643
(PID.TID 0000.0001) %MON time_secondsf                =   1.6430000000000E+05
(PID.TID 0000.0001) %MON dynstat_eta_max              =   5.8116928874023E+00
(PID.TID 0000.0001) %MON dynstat_eta_min              =  -1.4199037372241E+01
(PID.TID 0000.0001) %MON dynstat_eta_mean             =  -2.5041256525653E+00
(PID.TID 0000.0001) %MON dynstat_eta_sd               =   4.9502563881428E+00
(PID.TID 0000.0001) %MON dynstat_eta_del2             =   2.0718039418122E-01
(PID.TID 0000.0001) %MON dynstat_uvel_max             =   1.9570763840973E-02
(PID.TID 0000.0001) %MON dynstat_uvel_min             =  -8.5194493275255E-02
(PID.TID 0000.0001) %MON dynstat_uvel_mean            =  -1.0057751959043E-07
(PID.TID 0000.0001) %MON dynstat_uvel_sd              =   2.5471825829508E-03
(PID.TID 0000.0001) %MON dynstat_uvel_del2            =   4.1466894236545E-06
(PID.TID 0000.0001) %MON dynstat_vvel_max             =   4.6215797680540E-02
(PID.TID 0000.0001) %MON dynstat_vvel_min             =  -3.1010425588031E-02
(PID.TID 0000.0001) %MON dynstat_vvel_mean            =   1.5340397619214E-05
(PID.TID 0000.0001) %MON dynstat_vvel_sd              =   1.2963929251516E-03
(PID.TID 0000.0001) %MON dynstat_vvel_del2            =   2.6978933586648E-06
(PID.TID 0000.0001) %MON dynstat_wvel_max             =   2.6398608469635E-03
(PID.TID 0000.0001) %MON dynstat_wvel_min             =  -2.5962133337955E-03
(PID.TID 0000.0001) %MON dynstat_wvel_mean            =   7.6899265665348E-09
(PID.TID 0000.0001) %MON dynstat_wvel_sd              =   4.7145764693527E-05
(PID.TID 0000.0001) %MON dynstat_wvel_del2            =   1.8082093326707E-07
(PID.TID 0000.0001) %MON dynstat_theta_max            =   1.2000000000000E+00
(PID.TID 0000.0001) %MON dynstat_theta_min            =  -1.0000000000000E+00
(PID.TID 0000.0001) %MON dynstat_theta_mean           =   5.6787123199064E-01
(PID.TID 0000.0001) %MON dynstat_theta_sd             =   8.6793538528624E-01
(PID.TID 0000.0001) %MON dynstat_theta_del2           =   8.3243676559102E-06
(PID.TID 0000.0001) %MON dynstat_salt_max             =   3.4700000000000E+01
(PID.TID 0000.0001) %MON dynstat_salt_min             =   3.4000000000000E+01
(PID.TID 0000.0001) %MON dynstat_salt_mean            =   3.4498762421920E+01
(PID.TID 0000.0001) %MON dynstat_salt_sd              =   2.7611972149038E-01
(PID.TID 0000.0001) %MON dynstat_salt_del2            =   3.3019678150052E-06
(PID.TID 0000.0001) %MON advcfl_uvel_max              =   8.5194493275255E-03
(PID.TID 0000.0001) %MON advcfl_vvel_max              =   4.6215797680540E-03
(PID.TID 0000.0001) %MON advcfl_wvel_max              =   1.3199304234818E-02
(PID.TID 0000.0001) %MON advcfl_W_hf_max              =   1.3199304234818E-02
(PID.TID 0000.0001) %MON pe_b_mean                    =  -8.2949627564818E-01
(PID.TID 0000.0001) %MON ke_max                       =   3.2748133592984E-03
(PID.TID 0000.0001) %MON ke_mean                      =   4.0201604478372E-06
(PID.TID 0000.0001) %MON ke_vol                       =   4.2724654772204E+12
(PID.TID 0000.0001) // =======================================================
(PID.TID 0000.0001) // End MONITOR dynamic field statistics
(PID.TID 0000.0001) // =======================================================
(PID.TID 0000.0001) // =======================================================
(PID.TID 0000.0001) // Begin OBCS MONITOR field statistics
(PID.TID 0000.0001) // =======================================================
(PID.TID 0000.0001) %MON obc_N_vVel_max               =   1.5000080229812E-05
(PID.TID 0000.0001) %MON obc_N_vVel_min               =   1.5000080229811E-05
(PID.TID 0000.0001) %MON obc_N_vVel_mean              =   1.5000080229811E-05
(PID.TID 0000.0001) %MON obc_N_vVel_sd                =   3.2713375207864E-12
(PID.TID 0000.0001) %MON obc_N_vVel_Int               =   9.9000529516753E+02
(PID.TID 0000.0001) // =======================================================
(PID.TID 0000.0001) // End OBCS MONITOR field statistics
(PID.TID 0000.0001) // =======================================================
 cg2d: Sum(rhs),rhsMax =   4.50772124886845E+00  2.99980028119063E+02
(PID.TID 0000.0001)      cg2d_init_res =   1.42440690490794E-05
(PID.TID 0000.0001)      cg2d_iters(min,last) =      -1      85
(PID.TID 0000.0001)      cg2d_last_res =   9.85294677871876E-12
(PID.TID 0000.0001) // =======================================================
(PID.TID 0000.0001) // Begin MONITOR dynamic field statistics
(PID.TID 0000.0001) // =======================================================
(PID.TID 0000.0001) %MON time_tsnumber                =                  1644
(PID.TID 0000.0001) %MON time_secondsf                =   1.6440000000000E+05
(PID.TID 0000.0001) %MON dynstat_eta_max              =   5.8118180440464E+00
(PID.TID 0000.0001) %MON dynstat_eta_min              =  -1.4199067168537E+01
(PID.TID 0000.0001) %MON dynstat_eta_mean             =  -2.5041228647934E+00
(PID.TID 0000.0001) %MON dynstat_eta_sd               =   4.9502562658222E+00
(PID.TID 0000.0001) %MON dynstat_eta_del2             =   2.0718046633756E-01
(PID.TID 0000.0001) %MON dynstat_uvel_max             =   1.9609189472634E-02
(PID.TID 0000.0001) %MON dynstat_uvel_min             =  -8.5366980724816E-02
(PID.TID 0000.0001) %MON dynstat_uvel_mean            =  -1.0056176323064E-07
(PID.TID 0000.0001) %MON dynstat_uvel_sd              =   2.5520736414062E-03
(PID.TID 0000.0001) %MON dynstat_uvel_del2            =   4.1562907032472E-06
(PID.TID 0000.0001) %MON dynstat_vvel_max             =   4.6253993592499E-02
(PID.TID 0000.0001) %MON dynstat_vvel_min             =  -3.1069956484247E-02
(PID.TID 0000.0001) %MON dynstat_vvel_mean            =   1.5344699377716E-05
(PID.TID 0000.0001) %MON dynstat_vvel_sd              =   1.2987532000316E-03
(PID.TID 0000.0001) %MON dynstat_vvel_del2            =   2.7028875154975E-06
(PID.TID 0000.0001) %MON dynstat_wvel_max             =   2.6423563155136E-03
(PID.TID 0000.0001) %MON dynstat_wvel_min             =  -2.5980426136714E-03
(PID.TID 0000.0001) %MON dynstat_wvel_mean            =   7.6981447519133E-09
(PID.TID 0000.0001) %MON dynstat_wvel_sd              =   4.7225473408287E-05
(PID.TID 0000.0001) %MON dynstat_wvel_del2            =   1.8109644571807E-07
(PID.TID 0000.0001) %MON dynstat_theta_max            =   1.2000000000000E+00
(PID.TID 0000.0001) %MON dynstat_theta_min            =  -1.0000000000000E+00
(PID.TID 0000.0001) %MON dynstat_theta_mean           =   5.6786890689541E-01
(PID.TID 0000.0001) %MON dynstat_theta_sd             =   8.6793424818722E-01
(PID.TID 0000.0001) %MON dynstat_theta_del2           =   8.3382643460174E-06
(PID.TID 0000.0001) %MON dynstat_salt_max             =   3.4700000000000E+01
(PID.TID 0000.0001) %MON dynstat_salt_min             =   3.4000000000000E+01
(PID.TID 0000.0001) %MON dynstat_salt_mean            =   3.4498761491223E+01
(PID.TID 0000.0001) %MON dynstat_salt_sd              =   2.7611929394909E-01
(PID.TID 0000.0001) %MON dynstat_salt_del2            =   3.3074922376057E-06
(PID.TID 0000.0001) %MON advcfl_uvel_max              =   8.5366980724816E-03
(PID.TID 0000.0001) %MON advcfl_vvel_max              =   4.6253993592499E-03
(PID.TID 0000.0001) %MON advcfl_wvel_max              =   1.3211781577568E-02
(PID.TID 0000.0001) %MON advcfl_W_hf_max              =   1.3211781577568E-02
(PID.TID 0000.0001) %MON pe_b_mean                    =  -8.2949441838791E-01
(PID.TID 0000.0001) %MON ke_max                       =   3.2867124374697E-03
(PID.TID 0000.0001) %MON ke_mean                      =   4.0354461999755E-06
(PID.TID 0000.0001) %MON ke_vol                       =   4.2724654936238E+12
(PID.TID 0000.0001) // =======================================================
(PID.TID 0000.0001) // End MONITOR dynamic field statistics
(PID.TID 0000.0001) // =======================================================
(PID.TID 0000.0001) // =======================================================
(PID.TID 0000.0001) // Begin OBCS MONITOR field statistics
(PID.TID 0000.0001) // =======================================================
(PID.TID 0000.0001) %MON obc_N_vVel_max               =   1.5003544352543E-05
(PID.TID 0000.0001) %MON obc_N_vVel_min               =   1.5003544352543E-05
(PID.TID 0000.0001) %MON obc_N_vVel_mean              =   1.5003544352543E-05
(PID.TID 0000.0001) %MON obc_N_vVel_sd                =  -7.4446255129772E-24
(PID.TID 0000.0001) %MON obc_N_vVel_Int               =   9.9023392726786E+02
(PID.TID 0000.0001) // =======================================================
(PID.TID 0000.0001) // End OBCS MONITOR field statistics
(PID.TID 0000.0001) // =======================================================
 cg2d: Sum(rhs),rhsMax =   4.50771490809655E+00  2.99980112998713E+02
(PID.TID 0000.0001)      cg2d_init_res =   1.42631800103641E-05
(PID.TID 0000.0001)      cg2d_iters(min,last) =      -1      85
(PID.TID 0000.0001)      cg2d_last_res =   9.86378302437936E-12
(PID.TID 0000.0001) // =======================================================
(PID.TID 0000.0001) // Begin MONITOR dynamic field statistics
(PID.TID 0000.0001) // =======================================================
(PID.TID 0000.0001) %MON time_tsnumber                =                  1645
(PID.TID 0000.0001) %MON time_secondsf                =   1.6450000000000E+05
(PID.TID 0000.0001) %MON dynstat_eta_max              =   5.8119434629766E+00
(PID.TID 0000.0001) %MON dynstat_eta_min              =  -1.4199096967712E+01
(PID.TID 0000.0001) %MON dynstat_eta_mean             =  -2.5041200509200E+00
(PID.TID 0000.0001) %MON dynstat_eta_sd               =   4.9502561359760E+00
(PID.TID 0000.0001) %MON dynstat_eta_del2             =   2.0718053858232E-01
(PID.TID 0000.0001) %MON dynstat_uvel_max             =   1.9647666472752E-02
(PID.TID 0000.0001) %MON dynstat_uvel_min             =  -8.5539577062818E-02
(PID.TID 0000.0001) %MON dynstat_uvel_mean            =  -1.0054166183712E-07
(PID.TID 0000.0001) %MON dynstat_uvel_sd              =   2.5569701811430E-03
(PID.TID 0000.0001) %MON dynstat_uvel_del2            =   4.1659098802148E-06
(PID.TID 0000.0001) %MON dynstat_vvel_max             =   4.6292120191844E-02
(PID.TID 0000.0001) %MON dynstat_vvel_min             =  -3.1129485076796E-02
(PID.TID 0000.0001) %MON dynstat_vvel_mean            =   1.5349139312867E-05
(PID.TID 0000.0001) %MON dynstat_vvel_sd              =   1.3011167475245E-03
(PID.TID 0000.0001) %MON dynstat_vvel_del2            =   2.7078880938770E-06
(PID.TID 0000.0001) %MON dynstat_wvel_max             =   2.6448473353537E-03
(PID.TID 0000.0001) %MON dynstat_wvel_min             =  -2.5998476803333E-03
(PID.TID 0000.0001) %MON dynstat_wvel_mean            =   7.7058562938560E-09
(PID.TID 0000.0001) %MON dynstat_wvel_sd              =   4.7304109582786E-05
(PID.TID 0000.0001) %MON dynstat_wvel_del2            =   1.8136843285441E-07
(PID.TID 0000.0001) %MON dynstat_theta_max            =   1.2000000000000E+00
(PID.TID 0000.0001) %MON dynstat_theta_min            =  -1.0000000000000E+00
(PID.TID 0000.0001) %MON dynstat_theta_mean           =   5.6786657817921E-01
(PID.TID 0000.0001) %MON dynstat_theta_sd             =   8.6793310971660E-01
(PID.TID 0000.0001) %MON dynstat_theta_del2           =   8.3521762319211E-06
(PID.TID 0000.0001) %MON dynstat_salt_max             =   3.4700000000000E+01
(PID.TID 0000.0001) %MON dynstat_salt_min             =   3.4000000000000E+01
(PID.TID 0000.0001) %MON dynstat_salt_mean            =   3.4498760559078E+01
(PID.TID 0000.0001) %MON dynstat_salt_sd              =   2.7611886593654E-01
(PID.TID 0000.0001) %MON dynstat_salt_del2            =   3.3130225704999E-06
(PID.TID 0000.0001) %MON advcfl_uvel_max              =   8.5539577062818E-03
(PID.TID 0000.0001) %MON advcfl_vvel_max              =   4.6292120191844E-03
(PID.TID 0000.0001) %MON advcfl_wvel_max              =   1.3224236676769E-02
(PID.TID 0000.0001) %MON advcfl_W_hf_max              =   1.3224236676769E-02
(PID.TID 0000.0001) %MON pe_b_mean                    =  -8.2949255174609E-01
(PID.TID 0000.0001) %MON ke_max                       =   3.2986370437853E-03
(PID.TID 0000.0001) %MON ke_mean                      =   4.0507789686341E-06
(PID.TID 0000.0001) %MON ke_vol                       =   4.2724655101831E+12
(PID.TID 0000.0001) // =======================================================
(PID.TID 0000.0001) // End MONITOR dynamic field statistics
(PID.TID 0000.0001) // =======================================================
(PID.TID 0000.0001) // =======================================================
(PID.TID 0000.0001) // Begin OBCS MONITOR field statistics
(PID.TID 0000.0001) // =======================================================
(PID.TID 0000.0001) %MON obc_N_vVel_max               =   1.5007180713435E-05
(PID.TID 0000.0001) %MON obc_N_vVel_min               =   1.5007180713434E-05
(PID.TID 0000.0001) %MON obc_N_vVel_mean              =   1.5007180713434E-05
(PID.TID 0000.0001) %MON obc_N_vVel_sd                =   3.6450773090749E-12
(PID.TID 0000.0001) %MON obc_N_vVel_Int               =   9.9047392708667E+02
(PID.TID 0000.0001) // =======================================================
(PID.TID 0000.0001) // End OBCS MONITOR field statistics
(PID.TID 0000.0001) // =======================================================
 cg2d: Sum(rhs),rhsMax =   4.50770851951527E+00  2.99980197942903E+02
(PID.TID 0000.0001)      cg2d_init_res =   1.42821317559188E-05
(PID.TID 0000.0001)      cg2d_iters(min,last) =      -1      85
(PID.TID 0000.0001)      cg2d_last_res =   9.87408769825897E-12
(PID.TID 0000.0001) // =======================================================
(PID.TID 0000.0001) // Begin MONITOR dynamic field statistics
(PID.TID 0000.0001) // =======================================================
(PID.TID 0000.0001) %MON time_tsnumber                =                  1646
(PID.TID 0000.0001) %MON time_secondsf                =   1.6460000000000E+05
(PID.TID 0000.0001) %MON dynstat_eta_max              =   5.8120691441821E+00
(PID.TID 0000.0001) %MON dynstat_eta_min              =  -1.4199126769647E+01
(PID.TID 0000.0001) %MON dynstat_eta_mean             =  -2.5041172110243E+00
(PID.TID 0000.0001) %MON dynstat_eta_sd               =   4.9502559985549E+00
(PID.TID 0000.0001) %MON dynstat_eta_del2             =   2.0718061091534E-01
(PID.TID 0000.0001) %MON dynstat_uvel_max             =   1.9686194889815E-02
(PID.TID 0000.0001) %MON dynstat_uvel_min             =  -8.5712281352663E-02
(PID.TID 0000.0001) %MON dynstat_uvel_mean            =  -1.0051708328261E-07
(PID.TID 0000.0001) %MON dynstat_uvel_sd              =   2.5618721931588E-03
(PID.TID 0000.0001) %MON dynstat_uvel_del2            =   4.1755469543810E-06
(PID.TID 0000.0001) %MON dynstat_vvel_max             =   4.6330177334880E-02
(PID.TID 0000.0001) %MON dynstat_vvel_min             =  -3.1189010342064E-02
(PID.TID 0000.0001) %MON dynstat_vvel_mean            =   1.5353623097146E-05
(PID.TID 0000.0001) %MON dynstat_vvel_sd              =   1.3034835466083E-03
(PID.TID 0000.0001) %MON dynstat_vvel_del2            =   2.7128950020085E-06
(PID.TID 0000.0001) %MON dynstat_wvel_max             =   2.6473339027946E-03
(PID.TID 0000.0001) %MON dynstat_wvel_min             =  -2.6016283475390E-03
(PID.TID 0000.0001) %MON dynstat_wvel_mean            =   7.7129240080614E-09
(PID.TID 0000.0001) %MON dynstat_wvel_sd              =   4.7381568407847E-05
(PID.TID 0000.0001) %MON dynstat_wvel_del2            =   1.8163634736645E-07
(PID.TID 0000.0001) %MON dynstat_theta_max            =   1.2000000000000E+00
(PID.TID 0000.0001) %MON dynstat_theta_min            =  -1.0000000000000E+00
(PID.TID 0000.0001) %MON dynstat_theta_mean           =   5.6786424583828E-01
(PID.TID 0000.0001) %MON dynstat_theta_sd             =   8.6793196987721E-01
(PID.TID 0000.0001) %MON dynstat_theta_del2           =   8.3661037206648E-06
(PID.TID 0000.0001) %MON dynstat_salt_max             =   3.4700000000000E+01
(PID.TID 0000.0001) %MON dynstat_salt_min             =   3.4000000000000E+01
(PID.TID 0000.0001) %MON dynstat_salt_mean            =   3.4498759625483E+01
(PID.TID 0000.0001) %MON dynstat_salt_sd              =   2.7611843745390E-01
(PID.TID 0000.0001) %MON dynstat_salt_del2            =   3.3185588702867E-06
(PID.TID 0000.0001) %MON advcfl_uvel_max              =   8.5712281352663E-03
(PID.TID 0000.0001) %MON advcfl_vvel_max              =   4.6330177334880E-03
(PID.TID 0000.0001) %MON advcfl_wvel_max              =   1.3236669513973E-02
(PID.TID 0000.0001) %MON advcfl_W_hf_max              =   1.3236669513973E-02
(PID.TID 0000.0001) %MON pe_b_mean                    =  -8.2949067571906E-01
(PID.TID 0000.0001) %MON ke_max                       =   3.3105871667111E-03
(PID.TID 0000.0001) %MON ke_mean                      =   4.0661588044969E-06
(PID.TID 0000.0001) %MON ke_vol                       =   4.2724655268975E+12
(PID.TID 0000.0001) // =======================================================
(PID.TID 0000.0001) // End MONITOR dynamic field statistics
(PID.TID 0000.0001) // =======================================================
(PID.TID 0000.0001) // =======================================================
(PID.TID 0000.0001) // Begin OBCS MONITOR field statistics
(PID.TID 0000.0001) // =======================================================
(PID.TID 0000.0001) %MON obc_N_vVel_max               =   1.5010909467725E-05
(PID.TID 0000.0001) %MON obc_N_vVel_min               =   1.5010909467725E-05
(PID.TID 0000.0001) %MON obc_N_vVel_mean              =   1.5010909467725E-05
(PID.TID 0000.0001) %MON obc_N_vVel_sd                =  -5.1957282225987E-24
(PID.TID 0000.0001) %MON obc_N_vVel_Int               =   9.9072002486984E+02
(PID.TID 0000.0001) // =======================================================
(PID.TID 0000.0001) // End OBCS MONITOR field statistics
(PID.TID 0000.0001) // =======================================================
 cg2d: Sum(rhs),rhsMax =   4.50770208318884E+00  2.99980282946078E+02
(PID.TID 0000.0001)      cg2d_init_res =   1.43009112777945E-05
(PID.TID 0000.0001)      cg2d_iters(min,last) =      -1      85
(PID.TID 0000.0001)      cg2d_last_res =   9.88383130608545E-12
(PID.TID 0000.0001) // =======================================================
(PID.TID 0000.0001) // Begin MONITOR dynamic field statistics
(PID.TID 0000.0001) // =======================================================
(PID.TID 0000.0001) %MON time_tsnumber                =                  1647
(PID.TID 0000.0001) %MON time_secondsf                =   1.6470000000000E+05
(PID.TID 0000.0001) %MON dynstat_eta_max              =   5.8121950878435E+00
(PID.TID 0000.0001) %MON dynstat_eta_min              =  -1.4199156574123E+01
(PID.TID 0000.0001) %MON dynstat_eta_mean             =  -2.5041143450956E+00
(PID.TID 0000.0001) %MON dynstat_eta_sd               =   4.9502558534791E+00
(PID.TID 0000.0001) %MON dynstat_eta_del2             =   2.0718068333639E-01
(PID.TID 0000.0001) %MON dynstat_uvel_max             =   1.9724774771415E-02
(PID.TID 0000.0001) %MON dynstat_uvel_min             =  -8.5885092650560E-02
(PID.TID 0000.0001) %MON dynstat_uvel_mean            =  -1.0048800386933E-07
(PID.TID 0000.0001) %MON dynstat_uvel_sd              =   2.5667796683824E-03
(PID.TID 0000.0001) %MON dynstat_uvel_del2            =   4.1852019248646E-06
(PID.TID 0000.0001) %MON dynstat_vvel_max             =   4.6368164879258E-02
(PID.TID 0000.0001) %MON dynstat_vvel_min             =  -3.1248531249433E-02
(PID.TID 0000.0001) %MON dynstat_vvel_mean            =   1.5358056439556E-05
(PID.TID 0000.0001) %MON dynstat_vvel_sd              =   1.3058535898343E-03
(PID.TID 0000.0001) %MON dynstat_vvel_del2            =   2.7179082267689E-06
(PID.TID 0000.0001) %MON dynstat_wvel_max             =   2.6498160142151E-03
(PID.TID 0000.0001) %MON dynstat_wvel_min             =  -2.6033844306986E-03
(PID.TID 0000.0001) %MON dynstat_wvel_mean            =   7.7192277477395E-09
(PID.TID 0000.0001) %MON dynstat_wvel_sd              =   4.7457812453215E-05
(PID.TID 0000.0001) %MON dynstat_wvel_del2            =   1.8189989968358E-07
(PID.TID 0000.0001) %MON dynstat_theta_max            =   1.2000000000000E+00
(PID.TID 0000.0001) %MON dynstat_theta_min            =  -1.0000000000000E+00
(PID.TID 0000.0001) %MON dynstat_theta_mean           =   5.6786190986905E-01
(PID.TID 0000.0001) %MON dynstat_theta_sd             =   8.6793082867180E-01
(PID.TID 0000.0001) %MON dynstat_theta_del2           =   8.3800466895079E-06
(PID.TID 0000.0001) %MON dynstat_salt_max             =   3.4700000000000E+01
(PID.TID 0000.0001) %MON dynstat_salt_min             =   3.4000000000000E+01
(PID.TID 0000.0001) %MON dynstat_salt_mean            =   3.4498758690437E+01
(PID.TID 0000.0001) %MON dynstat_salt_sd              =   2.7611800850223E-01
(PID.TID 0000.0001) %MON dynstat_salt_del2            =   3.3241011556148E-06
(PID.TID 0000.0001) %MON advcfl_uvel_max              =   8.5885092650560E-03
(PID.TID 0000.0001) %MON advcfl_vvel_max              =   4.6368164879258E-03
(PID.TID 0000.0001) %MON advcfl_wvel_max              =   1.3249080071075E-02
(PID.TID 0000.0001) %MON advcfl_W_hf_max              =   1.3249080071075E-02
(PID.TID 0000.0001) %MON pe_b_mean                    =  -8.2948879027950E-01
(PID.TID 0000.0001) %MON ke_max                       =   3.3225627948301E-03
(PID.TID 0000.0001) %MON ke_mean                      =   4.0815857755430E-06
(PID.TID 0000.0001) %MON ke_vol                       =   4.2724655437665E+12
(PID.TID 0000.0001) // =======================================================
(PID.TID 0000.0001) // End MONITOR dynamic field statistics
(PID.TID 0000.0001) // =======================================================
(PID.TID 0000.0001) // =======================================================
(PID.TID 0000.0001) // Begin OBCS MONITOR field statistics
(PID.TID 0000.0001) // =======================================================
(PID.TID 0000.0001) %MON obc_N_vVel_max               =   1.5014649494456E-05
(PID.TID 0000.0001) %MON obc_N_vVel_min               =   1.5014649494456E-05
(PID.TID 0000.0001) %MON obc_N_vVel_mean              =   1.5014649494456E-05
(PID.TID 0000.0001) %MON obc_N_vVel_sd                =   2.6516099273273E-12
(PID.TID 0000.0001) %MON obc_N_vVel_Int               =   9.9096686663407E+02
(PID.TID 0000.0001) // =======================================================
(PID.TID 0000.0001) // End OBCS MONITOR field statistics
(PID.TID 0000.0001) // =======================================================
 cg2d: Sum(rhs),rhsMax =   4.50769559902460E+00  2.99980368002423E+02
(PID.TID 0000.0001)      cg2d_init_res =   1.43195204266633E-05
(PID.TID 0000.0001)      cg2d_iters(min,last) =      -1      85
(PID.TID 0000.0001)      cg2d_last_res =   9.89299548191145E-12
(PID.TID 0000.0001) // =======================================================
(PID.TID 0000.0001) // Begin MONITOR dynamic field statistics
(PID.TID 0000.0001) // =======================================================
(PID.TID 0000.0001) %MON time_tsnumber                =                  1648
(PID.TID 0000.0001) %MON time_secondsf                =   1.6480000000000E+05
(PID.TID 0000.0001) %MON dynstat_eta_max              =   5.8123212943296E+00
(PID.TID 0000.0001) %MON dynstat_eta_min              =  -1.4199186380849E+01
(PID.TID 0000.0001) %MON dynstat_eta_mean             =  -2.5041114530339E+00
(PID.TID 0000.0001) %MON dynstat_eta_sd               =   4.9502557006440E+00
(PID.TID 0000.0001) %MON dynstat_eta_del2             =   2.0718075584539E-01
(PID.TID 0000.0001) %MON dynstat_uvel_max             =   1.9763406164241E-02
(PID.TID 0000.0001) %MON dynstat_uvel_min             =  -8.6058010006148E-02
(PID.TID 0000.0001) %MON dynstat_uvel_mean            =  -1.0045451221885E-07
(PID.TID 0000.0001) %MON dynstat_uvel_sd              =   2.5716925976851E-03
(PID.TID 0000.0001) %MON dynstat_uvel_del2            =   4.1948747902318E-06
(PID.TID 0000.0001) %MON dynstat_vvel_max             =   4.6406082684396E-02
(PID.TID 0000.0001) %MON dynstat_vvel_min             =  -3.1308046761241E-02
(PID.TID 0000.0001) %MON dynstat_vvel_mean            =   1.5362347328418E-05
(PID.TID 0000.0001) %MON dynstat_vvel_sd              =   1.3082268835054E-03
(PID.TID 0000.0001) %MON dynstat_vvel_del2            =   2.7229278333021E-06
(PID.TID 0000.0001) %MON dynstat_wvel_max             =   2.6522936660817E-03
(PID.TID 0000.0001) %MON dynstat_wvel_min             =  -2.6051157470191E-03
(PID.TID 0000.0001) %MON dynstat_wvel_mean            =   7.7246667480958E-09
(PID.TID 0000.0001) %MON dynstat_wvel_sd              =   4.7532872003177E-05
(PID.TID 0000.0001) %MON dynstat_wvel_del2            =   1.8215906861648E-07
(PID.TID 0000.0001) %MON dynstat_theta_max            =   1.2000000000000E+00
(PID.TID 0000.0001) %MON dynstat_theta_min            =  -1.0000000000000E+00
(PID.TID 0000.0001) %MON dynstat_theta_mean           =   5.6785957026818E-01
(PID.TID 0000.0001) %MON dynstat_theta_sd             =   8.6792968610301E-01
(PID.TID 0000.0001) %MON dynstat_theta_del2           =   8.3940052182522E-06
(PID.TID 0000.0001) %MON dynstat_salt_max             =   3.4700000000000E+01
(PID.TID 0000.0001) %MON dynstat_salt_min             =   3.4000000000000E+01
(PID.TID 0000.0001) %MON dynstat_salt_mean            =   3.4498757753939E+01
(PID.TID 0000.0001) %MON dynstat_salt_sd              =   2.7611757908286E-01
(PID.TID 0000.0001) %MON dynstat_salt_del2            =   3.3296494542339E-06
(PID.TID 0000.0001) %MON advcfl_uvel_max              =   8.6058010006148E-03
(PID.TID 0000.0001) %MON advcfl_vvel_max              =   4.6406082684396E-03
(PID.TID 0000.0001) %MON advcfl_wvel_max              =   1.3261468330408E-02
(PID.TID 0000.0001) %MON advcfl_W_hf_max              =   1.3261468330408E-02
(PID.TID 0000.0001) %MON pe_b_mean                    =  -8.2948689537714E-01
(PID.TID 0000.0001) %MON ke_max                       =   3.3345639168558E-03
(PID.TID 0000.0001) %MON ke_mean                      =   4.0970599675013E-06
(PID.TID 0000.0001) %MON ke_vol                       =   4.2724655607901E+12
(PID.TID 0000.0001) // =======================================================
(PID.TID 0000.0001) // End MONITOR dynamic field statistics
(PID.TID 0000.0001) // =======================================================
(PID.TID 0000.0001) // =======================================================
(PID.TID 0000.0001) // Begin OBCS MONITOR field statistics
(PID.TID 0000.0001) // =======================================================
(PID.TID 0000.0001) %MON obc_N_vVel_max               =   1.5018320355926E-05
(PID.TID 0000.0001) %MON obc_N_vVel_min               =   1.5018320355926E-05
(PID.TID 0000.0001) %MON obc_N_vVel_mean              =   1.5018320355926E-05
(PID.TID 0000.0001) %MON obc_N_vVel_sd                =  -6.0746076234363E-24
(PID.TID 0000.0001) %MON obc_N_vVel_Int               =   9.9120914349114E+02
(PID.TID 0000.0001) // =======================================================
(PID.TID 0000.0001) // End OBCS MONITOR field statistics
(PID.TID 0000.0001) // =======================================================
 cg2d: Sum(rhs),rhsMax =   4.50768906677573E+00  2.99980453106032E+02
(PID.TID 0000.0001)      cg2d_init_res =   1.43379567233568E-05
(PID.TID 0000.0001)      cg2d_iters(min,last) =      -1      85
(PID.TID 0000.0001)      cg2d_last_res =   9.90157240630083E-12
(PID.TID 0000.0001) // =======================================================
(PID.TID 0000.0001) // Begin MONITOR dynamic field statistics
(PID.TID 0000.0001) // =======================================================
(PID.TID 0000.0001) %MON time_tsnumber                =                  1649
(PID.TID 0000.0001) %MON time_secondsf                =   1.6490000000000E+05
(PID.TID 0000.0001) %MON dynstat_eta_max              =   5.8124477641944E+00
(PID.TID 0000.0001) %MON dynstat_eta_min              =  -1.4199216189451E+01
(PID.TID 0000.0001) %MON dynstat_eta_mean             =  -2.5041085346528E+00
(PID.TID 0000.0001) %MON dynstat_eta_sd               =   4.9502555399192E+00
(PID.TID 0000.0001) %MON dynstat_eta_del2             =   2.0718082844216E-01
(PID.TID 0000.0001) %MON dynstat_uvel_max             =   1.9802089113707E-02
(PID.TID 0000.0001) %MON dynstat_uvel_min             =  -8.6231032462974E-02
(PID.TID 0000.0001) %MON dynstat_uvel_mean            =  -1.0041680641443E-07
(PID.TID 0000.0001) %MON dynstat_uvel_sd              =   2.5766109719025E-03
(PID.TID 0000.0001) %MON dynstat_uvel_del2            =   4.2045655485287E-06
(PID.TID 0000.0001) %MON dynstat_vvel_max             =   4.6443930611859E-02
(PID.TID 0000.0001) %MON dynstat_vvel_min             =  -3.1367555832061E-02
(PID.TID 0000.0001) %MON dynstat_vvel_mean            =   1.5366408168795E-05
(PID.TID 0000.0001) %MON dynstat_vvel_sd              =   1.3106034471321E-03
(PID.TID 0000.0001) %MON dynstat_vvel_del2            =   2.7279539600522E-06
(PID.TID 0000.0001) %MON dynstat_wvel_max             =   2.6547668549040E-03
(PID.TID 0000.0001) %MON dynstat_wvel_min             =  -2.6068221153946E-03
(PID.TID 0000.0001) %MON dynstat_wvel_mean            =   7.7291613499756E-09
(PID.TID 0000.0001) %MON dynstat_wvel_sd              =   4.7606841730737E-05
(PID.TID 0000.0001) %MON dynstat_wvel_del2            =   1.8241409571138E-07
(PID.TID 0000.0001) %MON dynstat_theta_max            =   1.2000000000000E+00
(PID.TID 0000.0001) %MON dynstat_theta_min            =  -1.0000000000000E+00
(PID.TID 0000.0001) %MON dynstat_theta_mean           =   5.6785722703253E-01
(PID.TID 0000.0001) %MON dynstat_theta_sd             =   8.6792854217399E-01
(PID.TID 0000.0001) %MON dynstat_theta_del2           =   8.4079792788477E-06
(PID.TID 0000.0001) %MON dynstat_salt_max             =   3.4700000000000E+01
(PID.TID 0000.0001) %MON dynstat_salt_min             =   3.4000000000000E+01
(PID.TID 0000.0001) %MON dynstat_salt_mean            =   3.4498756815988E+01
(PID.TID 0000.0001) %MON dynstat_salt_sd              =   2.7611714919669E-01
(PID.TID 0000.0001) %MON dynstat_salt_del2            =   3.3352037643373E-06
(PID.TID 0000.0001) %MON advcfl_uvel_max              =   8.6231032462974E-03
(PID.TID 0000.0001) %MON advcfl_vvel_max              =   4.6443930611859E-03
(PID.TID 0000.0001) %MON advcfl_wvel_max              =   1.3273834274520E-02
(PID.TID 0000.0001) %MON advcfl_W_hf_max              =   1.3273834274520E-02
(PID.TID 0000.0001) %MON pe_b_mean                    =  -8.2948499094001E-01
(PID.TID 0000.0001) %MON ke_max                       =   3.3465905216416E-03
(PID.TID 0000.0001) %MON ke_mean                      =   4.1125814833920E-06
(PID.TID 0000.0001) %MON ke_vol                       =   4.2724655779690E+12
(PID.TID 0000.0001) // =======================================================
(PID.TID 0000.0001) // End MONITOR dynamic field statistics
(PID.TID 0000.0001) // =======================================================
(PID.TID 0000.0001) // =======================================================
(PID.TID 0000.0001) // Begin OBCS MONITOR field statistics
(PID.TID 0000.0001) // =======================================================
(PID.TID 0000.0001) %MON obc_N_vVel_max               =   1.5021844197964E-05
(PID.TID 0000.0001) %MON obc_N_vVel_min               =   1.5021844197964E-05
(PID.TID 0000.0001) %MON obc_N_vVel_mean              =   1.5021844197964E-05
(PID.TID 0000.0001) %MON obc_N_vVel_sd                =   4.3111152139906E-12
(PID.TID 0000.0001) %MON obc_N_vVel_Int               =   9.9144171706561E+02
(PID.TID 0000.0001) // =======================================================
(PID.TID 0000.0001) // End OBCS MONITOR field statistics
(PID.TID 0000.0001) // =======================================================
 cg2d: Sum(rhs),rhsMax =   4.50768248604756E+00  2.99980538251060E+02
(PID.TID 0000.0001)      cg2d_init_res =   1.43562276557140E-05
(PID.TID 0000.0001)      cg2d_iters(min,last) =      -1      85
(PID.TID 0000.0001)      cg2d_last_res =   9.90956327521926E-12
(PID.TID 0000.0001) // =======================================================
(PID.TID 0000.0001) // Begin MONITOR dynamic field statistics
(PID.TID 0000.0001) // =======================================================
(PID.TID 0000.0001) %MON time_tsnumber                =                  1650
(PID.TID 0000.0001) %MON time_secondsf                =   1.6500000000000E+05
(PID.TID 0000.0001) %MON dynstat_eta_max              =   5.8125744981559E+00
(PID.TID 0000.0001) %MON dynstat_eta_min              =  -1.4199245999489E+01
(PID.TID 0000.0001) %MON dynstat_eta_mean             =  -2.5041055896841E+00
(PID.TID 0000.0001) %MON dynstat_eta_sd               =   4.9502553711534E+00
(PID.TID 0000.0001) %MON dynstat_eta_del2             =   2.0718090112654E-01
(PID.TID 0000.0001) %MON dynstat_uvel_max             =   1.9840823663714E-02
(PID.TID 0000.0001) %MON dynstat_uvel_min             =  -8.6404159058482E-02
(PID.TID 0000.0001) %MON dynstat_uvel_mean            =  -1.0037518646763E-07
(PID.TID 0000.0001) %MON dynstat_uvel_sd              =   2.5815347818488E-03
(PID.TID 0000.0001) %MON dynstat_uvel_del2            =   4.2142741974205E-06
(PID.TID 0000.0001) %MON dynstat_vvel_max             =   4.6481708526094E-02
(PID.TID 0000.0001) %MON dynstat_vvel_min             =  -3.1427057374524E-02
(PID.TID 0000.0001) %MON dynstat_vvel_mean            =   1.5370157824211E-05
(PID.TID 0000.0001) %MON dynstat_vvel_sd              =   1.3129833122330E-03
(PID.TID 0000.0001) %MON dynstat_vvel_del2            =   2.7329868099408E-06
(PID.TID 0000.0001) %MON dynstat_wvel_max             =   2.6572355772799E-03
(PID.TID 0000.0001) %MON dynstat_wvel_min             =  -2.6085033577978E-03
(PID.TID 0000.0001) %MON dynstat_wvel_mean            =   7.7326555012511E-09
(PID.TID 0000.0001) %MON dynstat_wvel_sd              =   4.7679873964396E-05
(PID.TID 0000.0001) %MON dynstat_wvel_del2            =   1.8266546403214E-07
(PID.TID 0000.0001) %MON dynstat_theta_max            =   1.2000000000000E+00
(PID.TID 0000.0001) %MON dynstat_theta_min            =  -1.0000000000000E+00
(PID.TID 0000.0001) %MON dynstat_theta_mean           =   5.6785488015920E-01
(PID.TID 0000.0001) %MON dynstat_theta_sd             =   8.6792739688796E-01
(PID.TID 0000.0001) %MON dynstat_theta_del2           =   8.4219700226445E-06
(PID.TID 0000.0001) %MON dynstat_salt_max             =   3.4700000000000E+01
(PID.TID 0000.0001) %MON dynstat_salt_min             =   3.4000000000000E+01
(PID.TID 0000.0001) %MON dynstat_salt_mean            =   3.4498755876582E+01
(PID.TID 0000.0001) %MON dynstat_salt_sd              =   2.7611671884501E-01
(PID.TID 0000.0001) %MON dynstat_salt_del2            =   3.3407640633885E-06
(PID.TID 0000.0001) %MON advcfl_uvel_max              =   8.6404159058482E-03
(PID.TID 0000.0001) %MON advcfl_vvel_max              =   4.6481708526094E-03
(PID.TID 0000.0001) %MON advcfl_wvel_max              =   1.3286177886399E-02
(PID.TID 0000.0001) %MON advcfl_W_hf_max              =   1.3286177886399E-02
(PID.TID 0000.0001) %MON pe_b_mean                    =  -8.2948307687623E-01
(PID.TID 0000.0001) %MON ke_max                       =   3.3586425981874E-03
(PID.TID 0000.0001) %MON ke_mean                      =   4.1281504421716E-06
(PID.TID 0000.0001) %MON ke_vol                       =   4.2724655953042E+12
(PID.TID 0000.0001) // =======================================================
(PID.TID 0000.0001) // End MONITOR dynamic field statistics
(PID.TID 0000.0001) // =======================================================
(PID.TID 0000.0001) // =======================================================
(PID.TID 0000.0001) // Begin OBCS MONITOR field statistics
(PID.TID 0000.0001) // =======================================================
(PID.TID 0000.0001) %MON obc_N_vVel_max               =   1.5025147530559E-05
(PID.TID 0000.0001) %MON obc_N_vVel_min               =   1.5025147530559E-05
(PID.TID 0000.0001) %MON obc_N_vVel_mean              =   1.5025147530559E-05
(PID.TID 0000.0001) %MON obc_N_vVel_sd                =  -1.1166938269466E-23
(PID.TID 0000.0001) %MON obc_N_vVel_Int               =   9.9165973701692E+02
(PID.TID 0000.0001) // =======================================================
(PID.TID 0000.0001) // End OBCS MONITOR field statistics
(PID.TID 0000.0001) // =======================================================
 cg2d: Sum(rhs),rhsMax =   4.50767585630774E+00  2.99980623431864E+02
(PID.TID 0000.0001)      cg2d_init_res =   1.43743418502981E-05
(PID.TID 0000.0001)      cg2d_iters(min,last) =      -1      85
(PID.TID 0000.0001)      cg2d_last_res =   9.91694637016007E-12
(PID.TID 0000.0001) // =======================================================
(PID.TID 0000.0001) // Begin MONITOR dynamic field statistics
(PID.TID 0000.0001) // =======================================================
(PID.TID 0000.0001) %MON time_tsnumber                =                  1651
(PID.TID 0000.0001) %MON time_secondsf                =   1.6510000000000E+05
(PID.TID 0000.0001) %MON dynstat_eta_max              =   5.8127014970765E+00
(PID.TID 0000.0001) %MON dynstat_eta_min              =  -1.4199275810461E+01
(PID.TID 0000.0001) %MON dynstat_eta_mean             =  -2.5041026177851E+00
(PID.TID 0000.0001) %MON dynstat_eta_sd               =   4.9502551941789E+00
(PID.TID 0000.0001) %MON dynstat_eta_del2             =   2.0718097389853E-01
(PID.TID 0000.0001) %MON dynstat_uvel_max             =   1.9879609864720E-02
(PID.TID 0000.0001) %MON dynstat_uvel_min             =  -8.6577388824555E-02
(PID.TID 0000.0001) %MON dynstat_uvel_mean            =  -1.0033001777024E-07
(PID.TID 0000.0001) %MON dynstat_uvel_sd              =   2.5864640184390E-03
(PID.TID 0000.0001) %MON dynstat_uvel_del2            =   4.2240007345669E-06
(PID.TID 0000.0001) %MON dynstat_vvel_max             =   4.6519416294544E-02
(PID.TID 0000.0001) %MON dynstat_vvel_min             =  -3.1486550211312E-02
(PID.TID 0000.0001) %MON dynstat_vvel_mean            =   1.5373523472677E-05
(PID.TID 0000.0001) %MON dynstat_vvel_sd              =   1.3153665204218E-03
(PID.TID 0000.0001) %MON dynstat_vvel_del2            =   2.7380266395307E-06
(PID.TID 0000.0001) %MON dynstat_wvel_max             =   2.6596998298644E-03
(PID.TID 0000.0001) %MON dynstat_wvel_min             =  -2.6101593008422E-03
(PID.TID 0000.0001) %MON dynstat_wvel_mean            =   7.7351172698840E-09
(PID.TID 0000.0001) %MON dynstat_wvel_sd              =   4.7752169152851E-05
(PID.TID 0000.0001) %MON dynstat_wvel_del2            =   1.8291386428602E-07
(PID.TID 0000.0001) %MON dynstat_theta_max            =   1.2000000000000E+00
(PID.TID 0000.0001) %MON dynstat_theta_min            =  -1.0000000000000E+00
(PID.TID 0000.0001) %MON dynstat_theta_mean           =   5.6785252964554E-01
(PID.TID 0000.0001) %MON dynstat_theta_sd             =   8.6792625024656E-01
(PID.TID 0000.0001) %MON dynstat_theta_del2           =   8.4359758519931E-06
(PID.TID 0000.0001) %MON dynstat_salt_max             =   3.4700000000000E+01
(PID.TID 0000.0001) %MON dynstat_salt_min             =   3.4000000000000E+01
(PID.TID 0000.0001) %MON dynstat_salt_mean            =   3.4498754935720E+01
(PID.TID 0000.0001) %MON dynstat_salt_sd              =   2.7611628802882E-01
(PID.TID 0000.0001) %MON dynstat_salt_del2            =   3.3463302854303E-06
(PID.TID 0000.0001) %MON advcfl_uvel_max              =   8.6577388824555E-03
(PID.TID 0000.0001) %MON advcfl_vvel_max              =   4.6519416294544E-03
(PID.TID 0000.0001) %MON advcfl_wvel_max              =   1.3298499149322E-02
(PID.TID 0000.0001) %MON advcfl_W_hf_max              =   1.3298499149322E-02
(PID.TID 0000.0001) %MON pe_b_mean                    =  -8.2948115307622E-01
(PID.TID 0000.0001) %MON ke_max                       =   3.3707201356592E-03
(PID.TID 0000.0001) %MON ke_mean                      =   4.1437669766963E-06
(PID.TID 0000.0001) %MON ke_vol                       =   4.2724656127973E+12
(PID.TID 0000.0001) // =======================================================
(PID.TID 0000.0001) // End MONITOR dynamic field statistics
(PID.TID 0000.0001) // =======================================================
(PID.TID 0000.0001) // =======================================================
(PID.TID 0000.0001) // Begin OBCS MONITOR field statistics
(PID.TID 0000.0001) // =======================================================
(PID.TID 0000.0001) %MON obc_N_vVel_max               =   1.5028162966789E-05
(PID.TID 0000.0001) %MON obc_N_vVel_min               =   1.5028162966789E-05
(PID.TID 0000.0001) %MON obc_N_vVel_mean              =   1.5028162966789E-05
(PID.TID 0000.0001) %MON obc_N_vVel_sd                =   4.2048764064263E-12
(PID.TID 0000.0001) %MON obc_N_vVel_Int               =   9.9185875580807E+02
(PID.TID 0000.0001) // =======================================================
(PID.TID 0000.0001) // End OBCS MONITOR field statistics
(PID.TID 0000.0001) // =======================================================
 cg2d: Sum(rhs),rhsMax =   4.50766917689904E+00  2.99980708643159E+02
(PID.TID 0000.0001)      cg2d_init_res =   1.43923501818047E-05
(PID.TID 0000.0001)      cg2d_iters(min,last) =      -1      85
(PID.TID 0000.0001)      cg2d_last_res =   9.92384011339785E-12
(PID.TID 0000.0001) // =======================================================
(PID.TID 0000.0001) // Begin MONITOR dynamic field statistics
(PID.TID 0000.0001) // =======================================================
(PID.TID 0000.0001) %MON time_tsnumber                =                  1652
(PID.TID 0000.0001) %MON time_secondsf                =   1.6520000000000E+05
(PID.TID 0000.0001) %MON dynstat_eta_max              =   5.8128287619570E+00
(PID.TID 0000.0001) %MON dynstat_eta_min              =  -1.4199305621839E+01
(PID.TID 0000.0001) %MON dynstat_eta_mean             =  -2.5040996185465E+00
(PID.TID 0000.0001) %MON dynstat_eta_sd               =   4.9502550088113E+00
(PID.TID 0000.0001) %MON dynstat_eta_del2             =   2.0718104675775E-01
(PID.TID 0000.0001) %MON dynstat_uvel_max             =   1.9918447761182E-02
(PID.TID 0000.0001) %MON dynstat_uvel_min             =  -8.6750720786888E-02
(PID.TID 0000.0001) %MON dynstat_uvel_mean            =  -1.0028184605904E-07
(PID.TID 0000.0001) %MON dynstat_uvel_sd              =   2.5913986724713E-03
(PID.TID 0000.0001) %MON dynstat_uvel_del2            =   4.2337451683228E-06
(PID.TID 0000.0001) %MON dynstat_vvel_max             =   4.6557053788180E-02
(PID.TID 0000.0001) %MON dynstat_vvel_min             =  -3.1546036608056E-02
(PID.TID 0000.0001) %MON dynstat_vvel_mean            =   1.5376442260841E-05
(PID.TID 0000.0001) %MON dynstat_vvel_sd              =   1.3177531214210E-03
(PID.TID 0000.0001) %MON dynstat_vvel_del2            =   2.7430737424923E-06
(PID.TID 0000.0001) %MON dynstat_wvel_max             =   2.6621596093743E-03
(PID.TID 0000.0001) %MON dynstat_wvel_min             =  -2.6117897738987E-03
(PID.TID 0000.0001) %MON dynstat_wvel_mean            =   7.7365402656680E-09
(PID.TID 0000.0001) %MON dynstat_wvel_sd              =   4.7823963852172E-05
(PID.TID 0000.0001) %MON dynstat_wvel_del2            =   1.8316015688068E-07
(PID.TID 0000.0001) %MON dynstat_theta_max            =   1.2000000000000E+00
(PID.TID 0000.0001) %MON dynstat_theta_min            =  -1.0000000000000E+00
(PID.TID 0000.0001) %MON dynstat_theta_mean           =   5.6785017548913E-01
(PID.TID 0000.0001) %MON dynstat_theta_sd             =   8.6792510225173E-01
(PID.TID 0000.0001) %MON dynstat_theta_del2           =   8.4499965428566E-06
(PID.TID 0000.0001) %MON dynstat_salt_max             =   3.4700000000000E+01
(PID.TID 0000.0001) %MON dynstat_salt_min             =   3.4000000000000E+01
(PID.TID 0000.0001) %MON dynstat_salt_mean            =   3.4498753993402E+01
(PID.TID 0000.0001) %MON dynstat_salt_sd              =   2.7611585674887E-01
(PID.TID 0000.0001) %MON dynstat_salt_del2            =   3.3519023904500E-06
(PID.TID 0000.0001) %MON advcfl_uvel_max              =   8.6750720786888E-03
(PID.TID 0000.0001) %MON advcfl_vvel_max              =   4.6557053788180E-03
(PID.TID 0000.0001) %MON advcfl_wvel_max              =   1.3310798046872E-02
(PID.TID 0000.0001) %MON advcfl_W_hf_max              =   1.3310798046872E-02
(PID.TID 0000.0001) %MON pe_b_mean                    =  -8.2947921941532E-01
(PID.TID 0000.0001) %MON ke_max                       =   3.3828231233182E-03
(PID.TID 0000.0001) %MON ke_mean                      =   4.1594312307032E-06
(PID.TID 0000.0001) %MON ke_vol                       =   4.2724656304504E+12
(PID.TID 0000.0001) // =======================================================
(PID.TID 0000.0001) // End MONITOR dynamic field statistics
(PID.TID 0000.0001) // =======================================================
(PID.TID 0000.0001) // =======================================================
(PID.TID 0000.0001) // Begin OBCS MONITOR field statistics
(PID.TID 0000.0001) // =======================================================
(PID.TID 0000.0001) %MON obc_N_vVel_max               =   1.5030830718009E-05
(PID.TID 0000.0001) %MON obc_N_vVel_min               =   1.5030830718008E-05
(PID.TID 0000.0001) %MON obc_N_vVel_mean              =   1.5030830718009E-05
(PID.TID 0000.0001) %MON obc_N_vVel_sd                =  -2.3419551092908E-23
(PID.TID 0000.0001) %MON obc_N_vVel_Int               =   9.9203482738859E+02
(PID.TID 0000.0001) // =======================================================
(PID.TID 0000.0001) // End OBCS MONITOR field statistics
(PID.TID 0000.0001) // =======================================================
 cg2d: Sum(rhs),rhsMax =   4.50766244705485E+00  2.99980793880188E+02
(PID.TID 0000.0001)      cg2d_init_res =   1.44102207637641E-05
(PID.TID 0000.0001)      cg2d_iters(min,last) =      -1      85
(PID.TID 0000.0001)      cg2d_last_res =   9.93017815526697E-12
(PID.TID 0000.0001) // =======================================================
(PID.TID 0000.0001) // Begin MONITOR dynamic field statistics
(PID.TID 0000.0001) // =======================================================
(PID.TID 0000.0001) %MON time_tsnumber                =                  1653
(PID.TID 0000.0001) %MON time_secondsf                =   1.6530000000000E+05
(PID.TID 0000.0001) %MON dynstat_eta_max              =   5.8129562938922E+00
(PID.TID 0000.0001) %MON dynstat_eta_min              =  -1.4199335433032E+01
(PID.TID 0000.0001) %MON dynstat_eta_mean             =  -2.5040965915026E+00
(PID.TID 0000.0001) %MON dynstat_eta_sd               =   4.9502548148582E+00
(PID.TID 0000.0001) %MON dynstat_eta_del2             =   2.0718111970410E-01
(PID.TID 0000.0001) %MON dynstat_uvel_max             =   1.9957337394183E-02
(PID.TID 0000.0001) %MON dynstat_uvel_min             =  -8.6924153967047E-02
(PID.TID 0000.0001) %MON dynstat_uvel_mean            =  -1.0023119358123E-07
(PID.TID 0000.0001) %MON dynstat_uvel_sd              =   2.5963387347920E-03
(PID.TID 0000.0001) %MON dynstat_uvel_del2            =   4.2435074955290E-06
(PID.TID 0000.0001) %MON dynstat_vvel_max             =   4.6594620881777E-02
(PID.TID 0000.0001) %MON dynstat_vvel_min             =  -3.1605515379164E-02
(PID.TID 0000.0001) %MON dynstat_vvel_mean            =   1.5378862703217E-05
(PID.TID 0000.0001) %MON dynstat_vvel_sd              =   1.3201431701557E-03
(PID.TID 0000.0001) %MON dynstat_vvel_del2            =   2.7481284328240E-06
(PID.TID 0000.0001) %MON dynstat_wvel_max             =   2.6646149125926E-03
(PID.TID 0000.0001) %MON dynstat_wvel_min             =  -2.6133946032190E-03
(PID.TID 0000.0001) %MON dynstat_wvel_mean            =   7.7369420977017E-09
(PID.TID 0000.0001) %MON dynstat_wvel_sd              =   4.7895516421689E-05
(PID.TID 0000.0001) %MON dynstat_wvel_del2            =   1.8340529787906E-07
(PID.TID 0000.0001) %MON dynstat_theta_max            =   1.2000000000000E+00
(PID.TID 0000.0001) %MON dynstat_theta_min            =  -1.0000000000000E+00
(PID.TID 0000.0001) %MON dynstat_theta_mean           =   5.6784781768778E-01
(PID.TID 0000.0001) %MON dynstat_theta_sd             =   8.6792395290448E-01
(PID.TID 0000.0001) %MON dynstat_theta_del2           =   8.4640318428496E-06
(PID.TID 0000.0001) %MON dynstat_salt_max             =   3.4700000000000E+01
(PID.TID 0000.0001) %MON dynstat_salt_min             =   3.4000000000000E+01
(PID.TID 0000.0001) %MON dynstat_salt_mean            =   3.4498753049626E+01
(PID.TID 0000.0001) %MON dynstat_salt_sd              =   2.7611542500567E-01
(PID.TID 0000.0001) %MON dynstat_salt_del2            =   3.3574803278393E-06
(PID.TID 0000.0001) %MON advcfl_uvel_max              =   8.6924153967047E-03
(PID.TID 0000.0001) %MON advcfl_vvel_max              =   4.6594620881777E-03
(PID.TID 0000.0001) %MON advcfl_wvel_max              =   1.3323074562963E-02
(PID.TID 0000.0001) %MON advcfl_W_hf_max              =   1.3323074562963E-02
(PID.TID 0000.0001) %MON pe_b_mean                    =  -8.2947727575675E-01
(PID.TID 0000.0001) %MON ke_max                       =   3.3949515507085E-03
(PID.TID 0000.0001) %MON ke_mean                      =   4.1751433555099E-06
(PID.TID 0000.0001) %MON ke_vol                       =   4.2724656482658E+12
(PID.TID 0000.0001) // =======================================================
(PID.TID 0000.0001) // End MONITOR dynamic field statistics
(PID.TID 0000.0001) // =======================================================
(PID.TID 0000.0001) // =======================================================
(PID.TID 0000.0001) // Begin OBCS MONITOR field statistics
(PID.TID 0000.0001) // =======================================================
(PID.TID 0000.0001) %MON obc_N_vVel_max               =   1.5033100034451E-05
(PID.TID 0000.0001) %MON obc_N_vVel_min               =   1.5033100034450E-05
(PID.TID 0000.0001) %MON obc_N_vVel_mean              =   1.5033100034450E-05
(PID.TID 0000.0001) %MON obc_N_vVel_sd                =   4.7231374259902E-12
(PID.TID 0000.0001) %MON obc_N_vVel_Int               =   9.9218460227370E+02
(PID.TID 0000.0001) // =======================================================
(PID.TID 0000.0001) // End OBCS MONITOR field statistics
(PID.TID 0000.0001) // =======================================================
 cg2d: Sum(rhs),rhsMax =   4.50765566591907E+00  2.99980879138737E+02
(PID.TID 0000.0001)      cg2d_init_res =   1.44280032952962E-05
(PID.TID 0000.0001)      cg2d_iters(min,last) =      -1      85
(PID.TID 0000.0001)      cg2d_last_res =   9.93602320379562E-12
(PID.TID 0000.0001) // =======================================================
(PID.TID 0000.0001) // Begin MONITOR dynamic field statistics
(PID.TID 0000.0001) // =======================================================
(PID.TID 0000.0001) %MON time_tsnumber                =                  1654
(PID.TID 0000.0001) %MON time_secondsf                =   1.6540000000000E+05
(PID.TID 0000.0001) %MON dynstat_eta_max              =   5.8130840940594E+00
(PID.TID 0000.0001) %MON dynstat_eta_min              =  -1.4199365243450E+01
(PID.TID 0000.0001) %MON dynstat_eta_mean             =  -2.5040935361428E+00
(PID.TID 0000.0001) %MON dynstat_eta_sd               =   4.9502546121228E+00
(PID.TID 0000.0001) %MON dynstat_eta_del2             =   2.0718119273745E-01
(PID.TID 0000.0001) %MON dynstat_uvel_max             =   1.9996278800773E-02
(PID.TID 0000.0001) %MON dynstat_uvel_min             =  -8.7097687380991E-02
(PID.TID 0000.0001) %MON dynstat_uvel_mean            =  -1.0017868350598E-07
(PID.TID 0000.0001) %MON dynstat_uvel_sd              =   2.6012841962921E-03
(PID.TID 0000.0001) %MON dynstat_uvel_del2            =   4.2532877128413E-06
(PID.TID 0000.0001) %MON dynstat_vvel_max             =   4.6632117454046E-02
(PID.TID 0000.0001) %MON dynstat_vvel_min             =  -3.1664985307001E-02
(PID.TID 0000.0001) %MON dynstat_vvel_mean            =   1.5380745786838E-05
(PID.TID 0000.0001) %MON dynstat_vvel_sd              =   1.3225367240261E-03
(PID.TID 0000.0001) %MON dynstat_vvel_del2            =   2.7531910289055E-06
(PID.TID 0000.0001) %MON dynstat_wvel_max             =   2.6670657363612E-03
(PID.TID 0000.0001) %MON dynstat_wvel_min             =  -2.6149736079050E-03
(PID.TID 0000.0001) %MON dynstat_wvel_mean            =   7.7363650921050E-09
(PID.TID 0000.0001) %MON dynstat_wvel_sd              =   4.7967092694408E-05
(PID.TID 0000.0001) %MON dynstat_wvel_del2            =   1.8365029109353E-07
(PID.TID 0000.0001) %MON dynstat_theta_max            =   1.2000000000000E+00
(PID.TID 0000.0001) %MON dynstat_theta_min            =  -1.0000000000000E+00
(PID.TID 0000.0001) %MON dynstat_theta_mean           =   5.6784545623955E-01
(PID.TID 0000.0001) %MON dynstat_theta_sd             =   8.6792280220510E-01
(PID.TID 0000.0001) %MON dynstat_theta_del2           =   8.4780814927322E-06
(PID.TID 0000.0001) %MON dynstat_salt_max             =   3.4700000000000E+01
(PID.TID 0000.0001) %MON dynstat_salt_min             =   3.4000000000000E+01
(PID.TID 0000.0001) %MON dynstat_salt_mean            =   3.4498752104391E+01
(PID.TID 0000.0001) %MON dynstat_salt_sd              =   2.7611499279973E-01
(PID.TID 0000.0001) %MON dynstat_salt_del2            =   3.3630640384626E-06
(PID.TID 0000.0001) %MON advcfl_uvel_max              =   8.7097687380991E-03
(PID.TID 0000.0001) %MON advcfl_vvel_max              =   4.6632117454046E-03
(PID.TID 0000.0001) %MON advcfl_wvel_max              =   1.3335328681806E-02
(PID.TID 0000.0001) %MON advcfl_W_hf_max              =   1.3335328681806E-02
(PID.TID 0000.0001) %MON pe_b_mean                    =  -8.2947532195480E-01
(PID.TID 0000.0001) %MON ke_max                       =   3.4071054074537E-03
(PID.TID 0000.0001) %MON ke_mean                      =   4.1909035064825E-06
(PID.TID 0000.0001) %MON ke_vol                       =   4.2724656662465E+12
(PID.TID 0000.0001) // =======================================================
(PID.TID 0000.0001) // End MONITOR dynamic field statistics
(PID.TID 0000.0001) // =======================================================
(PID.TID 0000.0001) // =======================================================
(PID.TID 0000.0001) // Begin OBCS MONITOR field statistics
(PID.TID 0000.0001) // =======================================================
(PID.TID 0000.0001) %MON obc_N_vVel_max               =   1.5034930211387E-05
(PID.TID 0000.0001) %MON obc_N_vVel_min               =   1.5034930211386E-05
(PID.TID 0000.0001) %MON obc_N_vVel_mean              =   1.5034930211386E-05
(PID.TID 0000.0001) %MON obc_N_vVel_sd                =   4.7449786404080E-12
(PID.TID 0000.0001) %MON obc_N_vVel_Int               =   9.9230539395147E+02
(PID.TID 0000.0001) // =======================================================
(PID.TID 0000.0001) // End OBCS MONITOR field statistics
(PID.TID 0000.0001) // =======================================================
 cg2d: Sum(rhs),rhsMax =   4.50764883256421E+00  2.99980964415363E+02
(PID.TID 0000.0001)      cg2d_init_res =   1.44457250828336E-05
(PID.TID 0000.0001)      cg2d_iters(min,last) =      -1      85
(PID.TID 0000.0001)      cg2d_last_res =   9.94141103408206E-12
(PID.TID 0000.0001) // =======================================================
(PID.TID 0000.0001) // Begin MONITOR dynamic field statistics
(PID.TID 0000.0001) // =======================================================
(PID.TID 0000.0001) %MON time_tsnumber                =                  1655
(PID.TID 0000.0001) %MON time_secondsf                =   1.6550000000000E+05
(PID.TID 0000.0001) %MON dynstat_eta_max              =   5.8132121636910E+00
(PID.TID 0000.0001) %MON dynstat_eta_min              =  -1.4199395052491E+01
(PID.TID 0000.0001) %MON dynstat_eta_mean             =  -2.5040904519230E+00
(PID.TID 0000.0001) %MON dynstat_eta_sd               =   4.9502544004073E+00
(PID.TID 0000.0001) %MON dynstat_eta_del2             =   2.0718126585766E-01
(PID.TID 0000.0001) %MON dynstat_uvel_max             =   2.0035272017923E-02
(PID.TID 0000.0001) %MON dynstat_uvel_min             =  -8.7271320039328E-02
(PID.TID 0000.0001) %MON dynstat_uvel_mean            =  -1.0012498486452E-07
(PID.TID 0000.0001) %MON dynstat_uvel_sd              =   2.6062350479296E-03
(PID.TID 0000.0001) %MON dynstat_uvel_del2            =   4.2630858170271E-06
(PID.TID 0000.0001) %MON dynstat_vvel_max             =   4.6669543387974E-02
(PID.TID 0000.0001) %MON dynstat_vvel_min             =  -3.1724445183139E-02
(PID.TID 0000.0001) %MON dynstat_vvel_mean            =   1.5382065779603E-05
(PID.TID 0000.0001) %MON dynstat_vvel_sd              =   1.3249338400144E-03
(PID.TID 0000.0001) %MON dynstat_vvel_del2            =   2.7582618366185E-06
(PID.TID 0000.0001) %MON dynstat_wvel_max             =   2.6695120775849E-03
(PID.TID 0000.0001) %MON dynstat_wvel_min             =  -2.6165266015416E-03
(PID.TID 0000.0001) %MON dynstat_wvel_mean            =   7.7348743474179E-09
(PID.TID 0000.0001) %MON dynstat_wvel_sd              =   4.8038951409485E-05
(PID.TID 0000.0001) %MON dynstat_wvel_del2            =   1.8389612852372E-07
(PID.TID 0000.0001) %MON dynstat_theta_max            =   1.2000000000000E+00
(PID.TID 0000.0001) %MON dynstat_theta_min            =  -1.0000000000000E+00
(PID.TID 0000.0001) %MON dynstat_theta_mean           =   5.6784309114268E-01
(PID.TID 0000.0001) %MON dynstat_theta_sd             =   8.6792165015264E-01
(PID.TID 0000.0001) %MON dynstat_theta_del2           =   8.4921446825065E-06
(PID.TID 0000.0001) %MON dynstat_salt_max             =   3.4700000000000E+01
(PID.TID 0000.0001) %MON dynstat_salt_min             =   3.4000000000000E+01
(PID.TID 0000.0001) %MON dynstat_salt_mean            =   3.4498751157697E+01
(PID.TID 0000.0001) %MON dynstat_salt_sd              =   2.7611456013079E-01
(PID.TID 0000.0001) %MON dynstat_salt_del2            =   3.3686531381563E-06
(PID.TID 0000.0001) %MON advcfl_uvel_max              =   8.7271320039328E-03
(PID.TID 0000.0001) %MON advcfl_vvel_max              =   4.6669543387974E-03
(PID.TID 0000.0001) %MON advcfl_wvel_max              =   1.3347560387925E-02
(PID.TID 0000.0001) %MON advcfl_W_hf_max              =   1.3347560387925E-02
(PID.TID 0000.0001) %MON pe_b_mean                    =  -8.2947335785821E-01
(PID.TID 0000.0001) %MON ke_max                       =   3.4192846833236E-03
(PID.TID 0000.0001) %MON ke_mean                      =   4.2067118393040E-06
(PID.TID 0000.0001) %MON ke_vol                       =   4.2724656843953E+12
(PID.TID 0000.0001) // =======================================================
(PID.TID 0000.0001) // End MONITOR dynamic field statistics
(PID.TID 0000.0001) // =======================================================
(PID.TID 0000.0001) // =======================================================
(PID.TID 0000.0001) // Begin OBCS MONITOR field statistics
(PID.TID 0000.0001) // =======================================================
(PID.TID 0000.0001) %MON obc_N_vVel_max               =   1.5036291517228E-05
(PID.TID 0000.0001) %MON obc_N_vVel_min               =   1.5036291517228E-05
(PID.TID 0000.0001) %MON obc_N_vVel_mean              =   1.5036291517228E-05
(PID.TID 0000.0001) %MON obc_N_vVel_sd                =   1.8189894035459E-12
(PID.TID 0000.0001) %MON obc_N_vVel_Int               =   9.9239524013705E+02
(PID.TID 0000.0001) // =======================================================
(PID.TID 0000.0001) // End OBCS MONITOR field statistics
(PID.TID 0000.0001) // =======================================================
 cg2d: Sum(rhs),rhsMax =   4.50764194601438E+00  2.99981049707435E+02
(PID.TID 0000.0001)      cg2d_init_res =   1.44633532869745E-05
(PID.TID 0000.0001)      cg2d_iters(min,last) =      -1      85
(PID.TID 0000.0001)      cg2d_last_res =   9.94634316347900E-12
(PID.TID 0000.0001) // =======================================================
(PID.TID 0000.0001) // Begin MONITOR dynamic field statistics
(PID.TID 0000.0001) // =======================================================
(PID.TID 0000.0001) %MON time_tsnumber                =                  1656
(PID.TID 0000.0001) %MON time_secondsf                =   1.6560000000000E+05
(PID.TID 0000.0001) %MON dynstat_eta_max              =   5.8133405040394E+00
(PID.TID 0000.0001) %MON dynstat_eta_min              =  -1.4199424859550E+01
(PID.TID 0000.0001) %MON dynstat_eta_mean             =  -2.5040873382790E+00
(PID.TID 0000.0001) %MON dynstat_eta_sd               =   4.9502541795134E+00
(PID.TID 0000.0001) %MON dynstat_eta_del2             =   2.0718133906419E-01
(PID.TID 0000.0001) %MON dynstat_uvel_max             =   2.0074317083015E-02
(PID.TID 0000.0001) %MON dynstat_uvel_min             =  -8.7445050947400E-02
(PID.TID 0000.0001) %MON dynstat_uvel_mean            =  -1.0007081011355E-07
(PID.TID 0000.0001) %MON dynstat_uvel_sd              =   2.6111912808629E-03
(PID.TID 0000.0001) %MON dynstat_uvel_del2            =   4.2729017987567E-06
(PID.TID 0000.0001) %MON dynstat_vvel_max             =   4.6706898570763E-02
(PID.TID 0000.0001) %MON dynstat_vvel_min             =  -3.1783893788413E-02
(PID.TID 0000.0001) %MON dynstat_vvel_mean            =   1.5382810736185E-05
(PID.TID 0000.0001) %MON dynstat_vvel_sd              =   1.3273345721597E-03
(PID.TID 0000.0001) %MON dynstat_vvel_del2            =   2.7633411359433E-06
(PID.TID 0000.0001) %MON dynstat_wvel_max             =   2.6719539332234E-03
(PID.TID 0000.0001) %MON dynstat_wvel_min             =  -2.6180534002387E-03
(PID.TID 0000.0001) %MON dynstat_wvel_mean            =   7.7325569602002E-09
(PID.TID 0000.0001) %MON dynstat_wvel_sd              =   4.8111330372170E-05
(PID.TID 0000.0001) %MON dynstat_wvel_del2            =   1.8414373577931E-07
(PID.TID 0000.0001) %MON dynstat_theta_max            =   1.2000000000000E+00
(PID.TID 0000.0001) %MON dynstat_theta_min            =  -1.0000000000000E+00
(PID.TID 0000.0001) %MON dynstat_theta_mean           =   5.6784072239563E-01
(PID.TID 0000.0001) %MON dynstat_theta_sd             =   8.6792049673448E-01
(PID.TID 0000.0001) %MON dynstat_theta_del2           =   8.5061883565398E-06
(PID.TID 0000.0001) %MON dynstat_salt_max             =   3.4700000000000E+01
(PID.TID 0000.0001) %MON dynstat_salt_min             =   3.4000000000000E+01
(PID.TID 0000.0001) %MON dynstat_salt_mean            =   3.4498750209544E+01
(PID.TID 0000.0001) %MON dynstat_salt_sd              =   2.7611412699572E-01
(PID.TID 0000.0001) %MON dynstat_salt_del2            =   3.3742442154661E-06
(PID.TID 0000.0001) %MON advcfl_uvel_max              =   8.7445050947400E-03
(PID.TID 0000.0001) %MON advcfl_vvel_max              =   4.6706898570763E-03
(PID.TID 0000.0001) %MON advcfl_wvel_max              =   1.3359769666117E-02
(PID.TID 0000.0001) %MON advcfl_W_hf_max              =   1.3359769666117E-02
(PID.TID 0000.0001) %MON pe_b_mean                    =  -8.2947138331371E-01
(PID.TID 0000.0001) %MON ke_max                       =   3.4314893682306E-03
(PID.TID 0000.0001) %MON ke_mean                      =   4.2225685069685E-06
(PID.TID 0000.0001) %MON ke_vol                       =   4.2724657027156E+12
(PID.TID 0000.0001) // =======================================================
(PID.TID 0000.0001) // End MONITOR dynamic field statistics
(PID.TID 0000.0001) // =======================================================
(PID.TID 0000.0001) // =======================================================
(PID.TID 0000.0001) // Begin OBCS MONITOR field statistics
(PID.TID 0000.0001) // =======================================================
(PID.TID 0000.0001) %MON obc_N_vVel_max               =   1.5037165778111E-05
(PID.TID 0000.0001) %MON obc_N_vVel_min               =   1.5037165778111E-05
(PID.TID 0000.0001) %MON obc_N_vVel_mean              =   1.5037165778111E-05
(PID.TID 0000.0001) %MON obc_N_vVel_sd                =   4.9319651142204E-12
(PID.TID 0000.0001) %MON obc_N_vVel_Int               =   9.9245294135532E+02
(PID.TID 0000.0001) // =======================================================
(PID.TID 0000.0001) // End OBCS MONITOR field statistics
(PID.TID 0000.0001) // =======================================================
 cg2d: Sum(rhs),rhsMax =   4.50763500526739E+00  2.99981135013224E+02
(PID.TID 0000.0001)      cg2d_init_res =   1.44807122044959E-05
(PID.TID 0000.0001)      cg2d_iters(min,last) =      -1      85
(PID.TID 0000.0001)      cg2d_last_res =   9.95059303079251E-12
(PID.TID 0000.0001) // =======================================================
(PID.TID 0000.0001) // Begin MONITOR dynamic field statistics
(PID.TID 0000.0001) // =======================================================
(PID.TID 0000.0001) %MON time_tsnumber                =                  1657
(PID.TID 0000.0001) %MON time_secondsf                =   1.6570000000000E+05
(PID.TID 0000.0001) %MON dynstat_eta_max              =   5.8134691163340E+00
(PID.TID 0000.0001) %MON dynstat_eta_min              =  -1.4199454664055E+01
(PID.TID 0000.0001) %MON dynstat_eta_mean             =  -2.5040841946397E+00
(PID.TID 0000.0001) %MON dynstat_eta_sd               =   4.9502539492390E+00
(PID.TID 0000.0001) %MON dynstat_eta_del2             =   2.0718141235469E-01
(PID.TID 0000.0001) %MON dynstat_uvel_max             =   2.0113414033416E-02
(PID.TID 0000.0001) %MON dynstat_uvel_min             =  -8.7618879103230E-02
(PID.TID 0000.0001) %MON dynstat_uvel_mean            =  -1.0001696420228E-07
(PID.TID 0000.0001) %MON dynstat_uvel_sd              =   2.6161528873865E-03
(PID.TID 0000.0001) %MON dynstat_uvel_del2            =   4.2827355897063E-06
(PID.TID 0000.0001) %MON dynstat_vvel_max             =   4.6744182893939E-02
(PID.TID 0000.0001) %MON dynstat_vvel_min             =  -3.1843329897132E-02
(PID.TID 0000.0001) %MON dynstat_vvel_mean            =   1.5382982749632E-05
(PID.TID 0000.0001) %MON dynstat_vvel_sd              =   1.3297389703785E-03
(PID.TID 0000.0001) %MON dynstat_vvel_del2            =   2.7684291925383E-06
(PID.TID 0000.0001) %MON dynstat_wvel_max             =   2.6743913003025E-03
(PID.TID 0000.0001) %MON dynstat_wvel_min             =  -2.6195538224906E-03
(PID.TID 0000.0001) %MON dynstat_wvel_mean            =   7.7295220884474E-09
(PID.TID 0000.0001) %MON dynstat_wvel_sd              =   4.8184434147941E-05
(PID.TID 0000.0001) %MON dynstat_wvel_del2            =   1.8439392821533E-07
(PID.TID 0000.0001) %MON dynstat_theta_max            =   1.2000000000000E+00
(PID.TID 0000.0001) %MON dynstat_theta_min            =  -1.0000000000000E+00
(PID.TID 0000.0001) %MON dynstat_theta_mean           =   5.6783834999707E-01
(PID.TID 0000.0001) %MON dynstat_theta_sd             =   8.6791934196153E-01
(PID.TID 0000.0001) %MON dynstat_theta_del2           =   8.5202457337947E-06
(PID.TID 0000.0001) %MON dynstat_salt_max             =   3.4700000000000E+01
(PID.TID 0000.0001) %MON dynstat_salt_min             =   3.4000000000000E+01
(PID.TID 0000.0001) %MON dynstat_salt_mean            =   3.4498749259929E+01
(PID.TID 0000.0001) %MON dynstat_salt_sd              =   2.7611369339785E-01
(PID.TID 0000.0001) %MON dynstat_salt_del2            =   3.3798408738591E-06
(PID.TID 0000.0001) %MON advcfl_uvel_max              =   8.7618879103230E-03
(PID.TID 0000.0001) %MON advcfl_vvel_max              =   4.6744182893939E-03
(PID.TID 0000.0001) %MON advcfl_wvel_max              =   1.3371956501512E-02
(PID.TID 0000.0001) %MON advcfl_W_hf_max              =   1.3371956501512E-02
(PID.TID 0000.0001) %MON pe_b_mean                    =  -8.2946939816960E-01
(PID.TID 0000.0001) %MON ke_max                       =   3.4437194519783E-03
(PID.TID 0000.0001) %MON ke_mean                      =   4.2384736605881E-06
(PID.TID 0000.0001) %MON ke_vol                       =   4.2724657212106E+12
(PID.TID 0000.0001) // =======================================================
(PID.TID 0000.0001) // End MONITOR dynamic field statistics
(PID.TID 0000.0001) // =======================================================
(PID.TID 0000.0001) // =======================================================
(PID.TID 0000.0001) // Begin OBCS MONITOR field statistics
(PID.TID 0000.0001) // =======================================================
(PID.TID 0000.0001) %MON obc_N_vVel_max               =   1.5037546708587E-05
(PID.TID 0000.0001) %MON obc_N_vVel_min               =   1.5037546708587E-05
(PID.TID 0000.0001) %MON obc_N_vVel_mean              =   1.5037546708587E-05
(PID.TID 0000.0001) %MON obc_N_vVel_sd                =   3.5151117194210E-12
(PID.TID 0000.0001) %MON obc_N_vVel_Int               =   9.9247808276672E+02
(PID.TID 0000.0001) // =======================================================
(PID.TID 0000.0001) // End OBCS MONITOR field statistics
(PID.TID 0000.0001) // =======================================================
 cg2d: Sum(rhs),rhsMax =   4.50762800931842E+00  2.99981220331921E+02
(PID.TID 0000.0001)      cg2d_init_res =   1.44984377288647E-05
(PID.TID 0000.0001)      cg2d_iters(min,last) =      -1      85
(PID.TID 0000.0001)      cg2d_last_res =   9.95487341010215E-12
(PID.TID 0000.0001) // =======================================================
(PID.TID 0000.0001) // Begin MONITOR dynamic field statistics
(PID.TID 0000.0001) // =======================================================
(PID.TID 0000.0001) %MON time_tsnumber                =                  1658
(PID.TID 0000.0001) %MON time_secondsf                =   1.6580000000000E+05
(PID.TID 0000.0001) %MON dynstat_eta_max              =   5.8135980018746E+00
(PID.TID 0000.0001) %MON dynstat_eta_min              =  -1.4199484465457E+01
(PID.TID 0000.0001) %MON dynstat_eta_mean             =  -2.5040810204402E+00
(PID.TID 0000.0001) %MON dynstat_eta_sd               =   4.9502537094353E+00
(PID.TID 0000.0001) %MON dynstat_eta_del2             =   2.0718148573187E-01
(PID.TID 0000.0001) %MON dynstat_uvel_max             =   2.0152562901194E-02
(PID.TID 0000.0001) %MON dynstat_uvel_min             =  -8.7792803502358E-02
(PID.TID 0000.0001) %MON dynstat_uvel_mean            =  -9.9964249958908E-08
(PID.TID 0000.0001) %MON dynstat_uvel_sd              =   2.6211198588308E-03
(PID.TID 0000.0001) %MON dynstat_uvel_del2            =   4.2925871876713E-06
(PID.TID 0000.0001) %MON dynstat_vvel_max             =   4.6781396253366E-02
(PID.TID 0000.0001) %MON dynstat_vvel_min             =  -3.1902752268428E-02
(PID.TID 0000.0001) %MON dynstat_vvel_mean            =   1.5382597518780E-05
(PID.TID 0000.0001) %MON dynstat_vvel_sd              =   1.3321470748153E-03
(PID.TID 0000.0001) %MON dynstat_vvel_del2            =   2.7735261900027E-06
(PID.TID 0000.0001) %MON dynstat_wvel_max             =   2.6768241759021E-03
(PID.TID 0000.0001) %MON dynstat_wvel_min             =  -2.6210276894587E-03
(PID.TID 0000.0001) %MON dynstat_wvel_mean            =   7.7258873967871E-09
(PID.TID 0000.0001) %MON dynstat_wvel_sd              =   4.8258423419202E-05
(PID.TID 0000.0001) %MON dynstat_wvel_del2            =   1.8464734892830E-07
(PID.TID 0000.0001) %MON dynstat_theta_max            =   1.2000000000000E+00
(PID.TID 0000.0001) %MON dynstat_theta_min            =  -1.0000000000000E+00
(PID.TID 0000.0001) %MON dynstat_theta_mean           =   5.6783597394585E-01
(PID.TID 0000.0001) %MON dynstat_theta_sd             =   8.6791818583175E-01
(PID.TID 0000.0001) %MON dynstat_theta_del2           =   8.5343165562895E-06
(PID.TID 0000.0001) %MON dynstat_salt_max             =   3.4700000000000E+01
(PID.TID 0000.0001) %MON dynstat_salt_min             =   3.4000000000000E+01
(PID.TID 0000.0001) %MON dynstat_salt_mean            =   3.4498748308854E+01
(PID.TID 0000.0001) %MON dynstat_salt_sd              =   2.7611325933655E-01
(PID.TID 0000.0001) %MON dynstat_salt_del2            =   3.3854430399846E-06
(PID.TID 0000.0001) %MON advcfl_uvel_max              =   8.7792803502358E-03
(PID.TID 0000.0001) %MON advcfl_vvel_max              =   4.6781396253366E-03
(PID.TID 0000.0001) %MON advcfl_wvel_max              =   1.3384120879511E-02
(PID.TID 0000.0001) %MON advcfl_W_hf_max              =   1.3384120879511E-02
(PID.TID 0000.0001) %MON pe_b_mean                    =  -8.2946740227902E-01
(PID.TID 0000.0001) %MON ke_max                       =   3.4559749247951E-03
(PID.TID 0000.0001) %MON ke_mean                      =   4.2544274364464E-06
(PID.TID 0000.0001) %MON ke_vol                       =   4.2724657398838E+12
(PID.TID 0000.0001) // =======================================================
(PID.TID 0000.0001) // End MONITOR dynamic field statistics
(PID.TID 0000.0001) // =======================================================
(PID.TID 0000.0001) // =======================================================
(PID.TID 0000.0001) // Begin OBCS MONITOR field statistics
(PID.TID 0000.0001) // =======================================================
(PID.TID 0000.0001) %MON obc_N_vVel_max               =   1.5037439948472E-05
(PID.TID 0000.0001) %MON obc_N_vVel_min               =   1.5037439948471E-05
(PID.TID 0000.0001) %MON obc_N_vVel_mean              =   1.5037439948472E-05
(PID.TID 0000.0001) %MON obc_N_vVel_sd                =  -5.8678124702980E-24
(PID.TID 0000.0001) %MON obc_N_vVel_Int               =   9.9247103659914E+02
(PID.TID 0000.0001) // =======================================================
(PID.TID 0000.0001) // End OBCS MONITOR field statistics
(PID.TID 0000.0001) // =======================================================
 cg2d: Sum(rhs),rhsMax =   4.50762095718279E+00  2.99981305663701E+02
(PID.TID 0000.0001)      cg2d_init_res =   1.45162046402014E-05
(PID.TID 0000.0001)      cg2d_iters(min,last) =      -1      85
(PID.TID 0000.0001)      cg2d_last_res =   9.95885384133695E-12
(PID.TID 0000.0001) // =======================================================
(PID.TID 0000.0001) // Begin MONITOR dynamic field statistics
(PID.TID 0000.0001) // =======================================================
(PID.TID 0000.0001) %MON time_tsnumber                =                  1659
(PID.TID 0000.0001) %MON time_secondsf                =   1.6590000000000E+05
(PID.TID 0000.0001) %MON dynstat_eta_max              =   5.8137271617663E+00
(PID.TID 0000.0001) %MON dynstat_eta_min              =  -1.4199514263253E+01
(PID.TID 0000.0001) %MON dynstat_eta_mean             =  -2.5040778151347E+00
(PID.TID 0000.0001) %MON dynstat_eta_sd               =   4.9502534599471E+00
(PID.TID 0000.0001) %MON dynstat_eta_del2             =   2.0718155919559E-01
(PID.TID 0000.0001) %MON dynstat_uvel_max             =   2.0191763715946E-02
(PID.TID 0000.0001) %MON dynstat_uvel_min             =  -8.7966823135959E-02
(PID.TID 0000.0001) %MON dynstat_uvel_mean            =  -9.9913240268117E-08
(PID.TID 0000.0001) %MON dynstat_uvel_sd              =   2.6260921865916E-03
(PID.TID 0000.0001) %MON dynstat_uvel_del2            =   4.3024565914946E-06
(PID.TID 0000.0001) %MON dynstat_vvel_max             =   4.6818538549052E-02
(PID.TID 0000.0001) %MON dynstat_vvel_min             =  -3.1962159655206E-02
(PID.TID 0000.0001) %MON dynstat_vvel_mean            =   1.5381683995189E-05
(PID.TID 0000.0001) %MON dynstat_vvel_sd              =   1.3345589161693E-03
(PID.TID 0000.0001) %MON dynstat_vvel_del2            =   2.7786322528503E-06
(PID.TID 0000.0001) %MON dynstat_wvel_max             =   2.6792525571637E-03
(PID.TID 0000.0001) %MON dynstat_wvel_min             =  -2.6224748244774E-03
(PID.TID 0000.0001) %MON dynstat_wvel_mean            =   7.7217882565993E-09
(PID.TID 0000.0001) %MON dynstat_wvel_sd              =   4.8333407664712E-05
(PID.TID 0000.0001) %MON dynstat_wvel_del2            =   1.8490445565873E-07
(PID.TID 0000.0001) %MON dynstat_theta_max            =   1.2000000000000E+00
(PID.TID 0000.0001) %MON dynstat_theta_min            =  -1.0000000000000E+00
(PID.TID 0000.0001) %MON dynstat_theta_mean           =   5.6783359424099E-01
(PID.TID 0000.0001) %MON dynstat_theta_sd             =   8.6791702834097E-01
(PID.TID 0000.0001) %MON dynstat_theta_del2           =   8.5484006744165E-06
(PID.TID 0000.0001) %MON dynstat_salt_max             =   3.4700000000000E+01
(PID.TID 0000.0001) %MON dynstat_salt_min             =   3.4000000000000E+01
(PID.TID 0000.0001) %MON dynstat_salt_mean            =   3.4498747356317E+01
(PID.TID 0000.0001) %MON dynstat_salt_sd              =   2.7611282481092E-01
(PID.TID 0000.0001) %MON dynstat_salt_del2            =   3.3910506743183E-06
(PID.TID 0000.0001) %MON advcfl_uvel_max              =   8.7966823135959E-03
(PID.TID 0000.0001) %MON advcfl_vvel_max              =   4.6818538549052E-03
(PID.TID 0000.0001) %MON advcfl_wvel_max              =   1.3396262785818E-02
(PID.TID 0000.0001) %MON advcfl_W_hf_max              =   1.3396262785818E-02
(PID.TID 0000.0001) %MON pe_b_mean                    =  -8.2946539550336E-01
(PID.TID 0000.0001) %MON ke_max                       =   3.4682557771802E-03
(PID.TID 0000.0001) %MON ke_mean                      =   4.2704299589362E-06
(PID.TID 0000.0001) %MON ke_vol                       =   4.2724657587386E+12
(PID.TID 0000.0001) // =======================================================
(PID.TID 0000.0001) // End MONITOR dynamic field statistics
(PID.TID 0000.0001) // =======================================================
(PID.TID 0000.0001) // =======================================================
(PID.TID 0000.0001) // Begin OBCS MONITOR field statistics
(PID.TID 0000.0001) // =======================================================
(PID.TID 0000.0001) %MON obc_N_vVel_max               =   1.5036862833256E-05
(PID.TID 0000.0001) %MON obc_N_vVel_min               =   1.5036862833256E-05
(PID.TID 0000.0001) %MON obc_N_vVel_mean              =   1.5036862833256E-05
(PID.TID 0000.0001) %MON obc_N_vVel_sd                =  -1.2304311611726E-23
(PID.TID 0000.0001) %MON obc_N_vVel_Int               =   9.9243294699488E+02
(PID.TID 0000.0001) // =======================================================
(PID.TID 0000.0001) // End OBCS MONITOR field statistics
(PID.TID 0000.0001) // =======================================================
 cg2d: Sum(rhs),rhsMax =   4.50761384791806E+00  2.99981391009701E+02
(PID.TID 0000.0001)      cg2d_init_res =   1.45340440887439E-05
(PID.TID 0000.0001)      cg2d_iters(min,last) =      -1      85
(PID.TID 0000.0001)      cg2d_last_res =   9.96257871754863E-12
(PID.TID 0000.0001) // =======================================================
(PID.TID 0000.0001) // Begin MONITOR dynamic field statistics
(PID.TID 0000.0001) // =======================================================
(PID.TID 0000.0001) %MON time_tsnumber                =                  1660
(PID.TID 0000.0001) %MON time_secondsf                =   1.6600000000000E+05
(PID.TID 0000.0001) %MON dynstat_eta_max              =   5.8138565970379E+00
(PID.TID 0000.0001) %MON dynstat_eta_min              =  -1.4199544056993E+01
(PID.TID 0000.0001) %MON dynstat_eta_mean             =  -2.5040745782093E+00
(PID.TID 0000.0001) %MON dynstat_eta_sd               =   4.9502532006400E+00
(PID.TID 0000.0001) %MON dynstat_eta_del2             =   2.0718163274581E-01
(PID.TID 0000.0001) %MON dynstat_uvel_max             =   2.0231016506491E-02
(PID.TID 0000.0001) %MON dynstat_uvel_min             =  -8.8140936986578E-02
(PID.TID 0000.0001) %MON dynstat_uvel_mean            =  -9.9864456892842E-08
(PID.TID 0000.0001) %MON dynstat_uvel_sd              =   2.6310698621884E-03
(PID.TID 0000.0001) %MON dynstat_uvel_del2            =   4.3123437997538E-06
(PID.TID 0000.0001) %MON dynstat_vvel_max             =   4.6855609685036E-02
(PID.TID 0000.0001) %MON dynstat_vvel_min             =  -3.2021550801488E-02
(PID.TID 0000.0001) %MON dynstat_vvel_mean            =   1.5380283588194E-05
(PID.TID 0000.0001) %MON dynstat_vvel_sd              =   1.3369745145157E-03
(PID.TID 0000.0001) %MON dynstat_vvel_del2            =   2.7837474418737E-06
(PID.TID 0000.0001) %MON dynstat_wvel_max             =   2.6816764412819E-03
(PID.TID 0000.0001) %MON dynstat_wvel_min             =  -2.6238950535658E-03
(PID.TID 0000.0001) %MON dynstat_wvel_mean            =   7.7173684066936E-09
(PID.TID 0000.0001) %MON dynstat_wvel_sd              =   4.8409440435859E-05
(PID.TID 0000.0001) %MON dynstat_wvel_del2            =   1.8516549581676E-07
(PID.TID 0000.0001) %MON dynstat_theta_max            =   1.2000000000000E+00
(PID.TID 0000.0001) %MON dynstat_theta_min            =  -1.0000000000000E+00
(PID.TID 0000.0001) %MON dynstat_theta_mean           =   5.6783121088162E-01
(PID.TID 0000.0001) %MON dynstat_theta_sd             =   8.6791586948650E-01
(PID.TID 0000.0001) %MON dynstat_theta_del2           =   8.5624980033091E-06
(PID.TID 0000.0001) %MON dynstat_salt_max             =   3.4700000000000E+01
(PID.TID 0000.0001) %MON dynstat_salt_min             =   3.4000000000000E+01
(PID.TID 0000.0001) %MON dynstat_salt_mean            =   3.4498746402317E+01
(PID.TID 0000.0001) %MON dynstat_salt_sd              =   2.7611238982015E-01
(PID.TID 0000.0001) %MON dynstat_salt_del2            =   3.3966637546791E-06
(PID.TID 0000.0001) %MON advcfl_uvel_max              =   8.8140936986578E-03
(PID.TID 0000.0001) %MON advcfl_vvel_max              =   4.6855609685036E-03
(PID.TID 0000.0001) %MON advcfl_wvel_max              =   1.3408382206410E-02
(PID.TID 0000.0001) %MON advcfl_W_hf_max              =   1.3408382206410E-02
(PID.TID 0000.0001) %MON pe_b_mean                    =  -8.2946337771529E-01
(PID.TID 0000.0001) %MON ke_max                       =   3.4805619993042E-03
(PID.TID 0000.0001) %MON ke_mean                      =   4.2864813390126E-06
(PID.TID 0000.0001) %MON ke_vol                       =   4.2724657777781E+12
(PID.TID 0000.0001) // =======================================================
(PID.TID 0000.0001) // End MONITOR dynamic field statistics
(PID.TID 0000.0001) // =======================================================
(PID.TID 0000.0001) // =======================================================
(PID.TID 0000.0001) // Begin OBCS MONITOR field statistics
(PID.TID 0000.0001) // =======================================================
(PID.TID 0000.0001) %MON obc_N_vVel_max               =   1.5035843883614E-05
(PID.TID 0000.0001) %MON obc_N_vVel_min               =   1.5035843883613E-05
(PID.TID 0000.0001) %MON obc_N_vVel_mean              =   1.5035843883613E-05
(PID.TID 0000.0001) %MON obc_N_vVel_sd                =   4.8393750725592E-12
(PID.TID 0000.0001) %MON obc_N_vVel_Int               =   9.9236569631845E+02
(PID.TID 0000.0001) // =======================================================
(PID.TID 0000.0001) // End OBCS MONITOR field statistics
(PID.TID 0000.0001) // =======================================================
 cg2d: Sum(rhs),rhsMax =   4.50760668064564E+00  2.99981476372030E+02
(PID.TID 0000.0001)      cg2d_init_res =   1.45519794693043E-05
(PID.TID 0000.0001)      cg2d_iters(min,last) =      -1      85
(PID.TID 0000.0001)      cg2d_last_res =   9.96607767781628E-12
(PID.TID 0000.0001) // =======================================================
(PID.TID 0000.0001) // Begin MONITOR dynamic field statistics
(PID.TID 0000.0001) // =======================================================
(PID.TID 0000.0001) %MON time_tsnumber                =                  1661
(PID.TID 0000.0001) %MON time_secondsf                =   1.6610000000000E+05
(PID.TID 0000.0001) %MON dynstat_eta_max              =   5.8139863086373E+00
(PID.TID 0000.0001) %MON dynstat_eta_min              =  -1.4199573846295E+01
(PID.TID 0000.0001) %MON dynstat_eta_mean             =  -2.5040713091935E+00
(PID.TID 0000.0001) %MON dynstat_eta_sd               =   4.9502529314020E+00
(PID.TID 0000.0001) %MON dynstat_eta_del2             =   2.0718170638251E-01
(PID.TID 0000.0001) %MON dynstat_uvel_max             =   2.0270321299364E-02
(PID.TID 0000.0001) %MON dynstat_uvel_min             =  -8.8315144033023E-02
(PID.TID 0000.0001) %MON dynstat_uvel_mean            =  -9.9818411768231E-08
(PID.TID 0000.0001) %MON dynstat_uvel_sd              =   2.6360528772756E-03
(PID.TID 0000.0001) %MON dynstat_uvel_del2            =   4.3222488112598E-06
(PID.TID 0000.0001) %MON dynstat_vvel_max             =   4.6892609569119E-02
(PID.TID 0000.0001) %MON dynstat_vvel_min             =  -3.2080924441349E-02
(PID.TID 0000.0001) %MON dynstat_vvel_mean            =   1.5378449074758E-05
(PID.TID 0000.0001) %MON dynstat_vvel_sd              =   1.3393938787567E-03
(PID.TID 0000.0001) %MON dynstat_vvel_del2            =   2.7888717537303E-06
(PID.TID 0000.0001) %MON dynstat_wvel_max             =   2.6840958255170E-03
(PID.TID 0000.0001) %MON dynstat_wvel_min             =  -2.6252882054027E-03
(PID.TID 0000.0001) %MON dynstat_wvel_mean            =   7.7127785561150E-09
(PID.TID 0000.0001) %MON dynstat_wvel_sd              =   4.8486517839573E-05
(PID.TID 0000.0001) %MON dynstat_wvel_del2            =   1.8543050226035E-07
(PID.TID 0000.0001) %MON dynstat_theta_max            =   1.2000000000000E+00
(PID.TID 0000.0001) %MON dynstat_theta_min            =  -1.0000000000000E+00
(PID.TID 0000.0001) %MON dynstat_theta_mean           =   5.6782882386707E-01
(PID.TID 0000.0001) %MON dynstat_theta_sd             =   8.6791470926483E-01
(PID.TID 0000.0001) %MON dynstat_theta_del2           =   8.5766082366652E-06
(PID.TID 0000.0001) %MON dynstat_salt_max             =   3.4700000000000E+01
(PID.TID 0000.0001) %MON dynstat_salt_min             =   3.4000000000000E+01
(PID.TID 0000.0001) %MON dynstat_salt_mean            =   3.4498745446855E+01
(PID.TID 0000.0001) %MON dynstat_salt_sd              =   2.7611195436356E-01
(PID.TID 0000.0001) %MON dynstat_salt_del2            =   3.4022821678333E-06
(PID.TID 0000.0001) %MON advcfl_uvel_max              =   8.8315144033023E-03
(PID.TID 0000.0001) %MON advcfl_vvel_max              =   4.6892609569119E-03
(PID.TID 0000.0001) %MON advcfl_wvel_max              =   1.3420479127585E-02
(PID.TID 0000.0001) %MON advcfl_W_hf_max              =   1.3420479127585E-02
(PID.TID 0000.0001) %MON pe_b_mean                    =  -8.2946134880155E-01
(PID.TID 0000.0001) %MON ke_max                       =   3.4928935814970E-03
(PID.TID 0000.0001) %MON ke_mean                      =   4.3025816733461E-06
(PID.TID 0000.0001) %MON ke_vol                       =   4.2724657970054E+12
(PID.TID 0000.0001) // =======================================================
(PID.TID 0000.0001) // End MONITOR dynamic field statistics
(PID.TID 0000.0001) // =======================================================
(PID.TID 0000.0001) // =======================================================
(PID.TID 0000.0001) // Begin OBCS MONITOR field statistics
(PID.TID 0000.0001) // =======================================================
(PID.TID 0000.0001) %MON obc_N_vVel_max               =   1.5034422031892E-05
(PID.TID 0000.0001) %MON obc_N_vVel_min               =   1.5034422031892E-05
(PID.TID 0000.0001) %MON obc_N_vVel_mean              =   1.5034422031892E-05
(PID.TID 0000.0001) %MON obc_N_vVel_sd                =   3.4818624115163E-12
(PID.TID 0000.0001) %MON obc_N_vVel_Int               =   9.9227185410484E+02
(PID.TID 0000.0001) // =======================================================
(PID.TID 0000.0001) // End OBCS MONITOR field statistics
(PID.TID 0000.0001) // =======================================================
 cg2d: Sum(rhs),rhsMax =   4.50759945457008E+00  2.99981561753705E+02
(PID.TID 0000.0001)      cg2d_init_res =   1.45700286237483E-05
(PID.TID 0000.0001)      cg2d_iters(min,last) =      -1      85
(PID.TID 0000.0001)      cg2d_last_res =   9.96938185288991E-12
(PID.TID 0000.0001) // =======================================================
(PID.TID 0000.0001) // Begin MONITOR dynamic field statistics
(PID.TID 0000.0001) // =======================================================
(PID.TID 0000.0001) %MON time_tsnumber                =                  1662
(PID.TID 0000.0001) %MON time_secondsf                =   1.6620000000000E+05
(PID.TID 0000.0001) %MON dynstat_eta_max              =   5.8141162973867E+00
(PID.TID 0000.0001) %MON dynstat_eta_min              =  -1.4199603630838E+01
(PID.TID 0000.0001) %MON dynstat_eta_mean             =  -2.5040680076705E+00
(PID.TID 0000.0001) %MON dynstat_eta_sd               =   4.9502526521464E+00
(PID.TID 0000.0001) %MON dynstat_eta_del2             =   2.0718178010565E-01
(PID.TID 0000.0001) %MON dynstat_uvel_max             =   2.0309678118272E-02
(PID.TID 0000.0001) %MON dynstat_uvel_min             =  -8.8489443252222E-02
(PID.TID 0000.0001) %MON dynstat_uvel_mean            =  -9.9775586954955E-08
(PID.TID 0000.0001) %MON dynstat_uvel_sd              =   2.6410412236365E-03
(PID.TID 0000.0001) %MON dynstat_uvel_del2            =   4.3321716250299E-06
(PID.TID 0000.0001) %MON dynstat_vvel_max             =   4.6929538112665E-02
(PID.TID 0000.0001) %MON dynstat_vvel_min             =  -3.2140279300579E-02
(PID.TID 0000.0001) %MON dynstat_vvel_mean            =   1.5376243276464E-05
(PID.TID 0000.0001) %MON dynstat_vvel_sd              =   1.3418170067568E-03
(PID.TID 0000.0001) %MON dynstat_vvel_del2            =   2.7940051239225E-06
(PID.TID 0000.0001) %MON dynstat_wvel_max             =   2.6865107071904E-03
(PID.TID 0000.0001) %MON dynstat_wvel_min             =  -2.6266541110331E-03
(PID.TID 0000.0001) %MON dynstat_wvel_mean            =   7.7081732313324E-09
(PID.TID 0000.0001) %MON dynstat_wvel_sd              =   4.8564580134520E-05
(PID.TID 0000.0001) %MON dynstat_wvel_del2            =   1.8569929943846E-07
(PID.TID 0000.0001) %MON dynstat_theta_max            =   1.2000000000000E+00
(PID.TID 0000.0001) %MON dynstat_theta_min            =  -1.0000000000000E+00
(PID.TID 0000.0001) %MON dynstat_theta_mean           =   5.6782643319675E-01
(PID.TID 0000.0001) %MON dynstat_theta_sd             =   8.6791354767470E-01
(PID.TID 0000.0001) %MON dynstat_theta_del2           =   8.5907316538789E-06
(PID.TID 0000.0001) %MON dynstat_salt_max             =   3.4700000000000E+01
(PID.TID 0000.0001) %MON dynstat_salt_min             =   3.4000000000000E+01
(PID.TID 0000.0001) %MON dynstat_salt_mean            =   3.4498744489930E+01
(PID.TID 0000.0001) %MON dynstat_salt_sd              =   2.7611151844081E-01
(PID.TID 0000.0001) %MON dynstat_salt_del2            =   3.4079060008246E-06
(PID.TID 0000.0001) %MON advcfl_uvel_max              =   8.8489443252222E-03
(PID.TID 0000.0001) %MON advcfl_vvel_max              =   4.6929538112665E-03
(PID.TID 0000.0001) %MON advcfl_wvel_max              =   1.3432553535952E-02
(PID.TID 0000.0001) %MON advcfl_W_hf_max              =   1.3432553535952E-02
(PID.TID 0000.0001) %MON pe_b_mean                    =  -8.2945930866545E-01
(PID.TID 0000.0001) %MON ke_max                       =   3.5052505144578E-03
(PID.TID 0000.0001) %MON ke_mean                      =   4.3187310443320E-06
(PID.TID 0000.0001) %MON ke_vol                       =   4.2724658164234E+12
(PID.TID 0000.0001) // =======================================================
(PID.TID 0000.0001) // End MONITOR dynamic field statistics
(PID.TID 0000.0001) // =======================================================
(PID.TID 0000.0001) // =======================================================
(PID.TID 0000.0001) // Begin OBCS MONITOR field statistics
(PID.TID 0000.0001) // =======================================================
(PID.TID 0000.0001) %MON obc_N_vVel_max               =   1.5032645615879E-05
(PID.TID 0000.0001) %MON obc_N_vVel_min               =   1.5032645615878E-05
(PID.TID 0000.0001) %MON obc_N_vVel_mean              =   1.5032645615878E-05
(PID.TID 0000.0001) %MON obc_N_vVel_sd                =   4.1398246721731E-12
(PID.TID 0000.0001) %MON obc_N_vVel_Int               =   9.9215461064796E+02
(PID.TID 0000.0001) // =======================================================
(PID.TID 0000.0001) // End OBCS MONITOR field statistics
(PID.TID 0000.0001) // =======================================================
 cg2d: Sum(rhs),rhsMax =   4.50759216899575E+00  2.99981647158612E+02
(PID.TID 0000.0001)      cg2d_init_res =   1.45882080938608E-05
(PID.TID 0000.0001)      cg2d_iters(min,last) =      -1      85
(PID.TID 0000.0001)      cg2d_last_res =   9.97252388198291E-12
(PID.TID 0000.0001) // =======================================================
(PID.TID 0000.0001) // Begin MONITOR dynamic field statistics
(PID.TID 0000.0001) // =======================================================
(PID.TID 0000.0001) %MON time_tsnumber                =                  1663
(PID.TID 0000.0001) %MON time_secondsf                =   1.6630000000000E+05
(PID.TID 0000.0001) %MON dynstat_eta_max              =   5.8142465639489E+00
(PID.TID 0000.0001) %MON dynstat_eta_min              =  -1.4199633410392E+01
(PID.TID 0000.0001) %MON dynstat_eta_mean             =  -2.5040646732863E+00
(PID.TID 0000.0001) %MON dynstat_eta_sd               =   4.9502523628140E+00
(PID.TID 0000.0001) %MON dynstat_eta_del2             =   2.0718185391531E-01
(PID.TID 0000.0001) %MON dynstat_uvel_max             =   2.0349086984407E-02
(PID.TID 0000.0001) %MON dynstat_uvel_min             =  -8.8663833617126E-02
(PID.TID 0000.0001) %MON dynstat_uvel_mean            =  -9.9736402693633E-08
(PID.TID 0000.0001) %MON dynstat_uvel_sd              =   2.6460348931749E-03
(PID.TID 0000.0001) %MON dynstat_uvel_del2            =   4.3421122401762E-06
(PID.TID 0000.0001) %MON dynstat_vvel_max             =   4.6966395229942E-02
(PID.TID 0000.0001) %MON dynstat_vvel_min             =  -3.2199614098202E-02
(PID.TID 0000.0001) %MON dynstat_vvel_mean            =   1.5373737417692E-05
(PID.TID 0000.0001) %MON dynstat_vvel_sd              =   1.3442438859754E-03
(PID.TID 0000.0001) %MON dynstat_vvel_del2            =   2.7991474323858E-06
(PID.TID 0000.0001) %MON dynstat_wvel_max             =   2.6889210836812E-03
(PID.TID 0000.0001) %MON dynstat_wvel_min             =  -2.6279926040648E-03
(PID.TID 0000.0001) %MON dynstat_wvel_mean            =   7.7037052917949E-09
(PID.TID 0000.0001) %MON dynstat_wvel_sd              =   4.8643516257477E-05
(PID.TID 0000.0001) %MON dynstat_wvel_del2            =   1.8597152057025E-07
(PID.TID 0000.0001) %MON dynstat_theta_max            =   1.2000000000000E+00
(PID.TID 0000.0001) %MON dynstat_theta_min            =  -1.0000000000000E+00
(PID.TID 0000.0001) %MON dynstat_theta_mean           =   5.6782403887016E-01
(PID.TID 0000.0001) %MON dynstat_theta_sd             =   8.6791238471295E-01
(PID.TID 0000.0001) %MON dynstat_theta_del2           =   8.6048678492843E-06
(PID.TID 0000.0001) %MON dynstat_salt_max             =   3.4700000000000E+01
(PID.TID 0000.0001) %MON dynstat_salt_min             =   3.4000000000000E+01
(PID.TID 0000.0001) %MON dynstat_salt_mean            =   3.4498743531542E+01
(PID.TID 0000.0001) %MON dynstat_salt_sd              =   2.7611108205148E-01
(PID.TID 0000.0001) %MON dynstat_salt_del2            =   3.4135350672003E-06
(PID.TID 0000.0001) %MON advcfl_uvel_max              =   8.8663833617126E-03
(PID.TID 0000.0001) %MON advcfl_vvel_max              =   4.6966395229942E-03
(PID.TID 0000.0001) %MON advcfl_wvel_max              =   1.3444605418406E-02
(PID.TID 0000.0001) %MON advcfl_W_hf_max              =   1.3444605418406E-02
(PID.TID 0000.0001) %MON pe_b_mean                    =  -8.2945725722877E-01
(PID.TID 0000.0001) %MON ke_max                       =   3.5176327890746E-03
(PID.TID 0000.0001) %MON ke_mean                      =   4.3349295207678E-06
(PID.TID 0000.0001) %MON ke_vol                       =   4.2724658360344E+12
(PID.TID 0000.0001) // =======================================================
(PID.TID 0000.0001) // End MONITOR dynamic field statistics
(PID.TID 0000.0001) // =======================================================
(PID.TID 0000.0001) // =======================================================
(PID.TID 0000.0001) // Begin OBCS MONITOR field statistics
(PID.TID 0000.0001) // =======================================================
(PID.TID 0000.0001) %MON obc_N_vVel_max               =   1.5030571115617E-05
(PID.TID 0000.0001) %MON obc_N_vVel_min               =   1.5030571115616E-05
(PID.TID 0000.0001) %MON obc_N_vVel_mean              =   1.5030571115616E-05
(PID.TID 0000.0001) %MON obc_N_vVel_sd                =   1.4909888987636E-12
(PID.TID 0000.0001) %MON obc_N_vVel_Int               =   9.9201769363069E+02
(PID.TID 0000.0001) // =======================================================
(PID.TID 0000.0001) // End OBCS MONITOR field statistics
(PID.TID 0000.0001) // =======================================================
 cg2d: Sum(rhs),rhsMax =   4.50758482334210E+00  2.99981732591392E+02
(PID.TID 0000.0001)      cg2d_init_res =   1.46065253073206E-05
(PID.TID 0000.0001)      cg2d_iters(min,last) =      -1      85
(PID.TID 0000.0001)      cg2d_last_res =   9.97550107215253E-12
(PID.TID 0000.0001) // =======================================================
(PID.TID 0000.0001) // Begin MONITOR dynamic field statistics
(PID.TID 0000.0001) // =======================================================
(PID.TID 0000.0001) %MON time_tsnumber                =                  1664
(PID.TID 0000.0001) %MON time_secondsf                =   1.6640000000000E+05
(PID.TID 0000.0001) %MON dynstat_eta_max              =   5.8143771088263E+00
(PID.TID 0000.0001) %MON dynstat_eta_min              =  -1.4199663184803E+01
(PID.TID 0000.0001) %MON dynstat_eta_mean             =  -2.5040613057571E+00
(PID.TID 0000.0001) %MON dynstat_eta_sd               =   4.9502520633727E+00
(PID.TID 0000.0001) %MON dynstat_eta_del2             =   2.0718192781151E-01
(PID.TID 0000.0001) %MON dynstat_uvel_max             =   2.0388547849256E-02
(PID.TID 0000.0001) %MON dynstat_uvel_min             =  -8.8838314095304E-02
(PID.TID 0000.0001) %MON dynstat_uvel_mean            =  -9.9701206852140E-08
(PID.TID 0000.0001) %MON dynstat_uvel_sd              =   2.6510338779479E-03
(PID.TID 0000.0001) %MON dynstat_uvel_del2            =   4.3520706580696E-06
(PID.TID 0000.0001) %MON dynstat_vvel_max             =   4.7003180838083E-02
(PID.TID 0000.0001) %MON dynstat_vvel_min             =  -3.2258927556677E-02
(PID.TID 0000.0001) %MON dynstat_vvel_mean            =   1.5371009378591E-05
(PID.TID 0000.0001) %MON dynstat_vvel_sd              =   1.3466744945966E-03
(PID.TID 0000.0001) %MON dynstat_vvel_del2            =   2.8042985088175E-06
(PID.TID 0000.0001) %MON dynstat_wvel_max             =   2.6913269524429E-03
(PID.TID 0000.0001) %MON dynstat_wvel_min             =  -2.6293034812559E-03
(PID.TID 0000.0001) %MON dynstat_wvel_mean            =   7.6995239600112E-09
(PID.TID 0000.0001) %MON dynstat_wvel_sd              =   4.8723171276913E-05
(PID.TID 0000.0001) %MON dynstat_wvel_del2            =   1.8624663458711E-07
(PID.TID 0000.0001) %MON dynstat_theta_max            =   1.2000000000000E+00
(PID.TID 0000.0001) %MON dynstat_theta_min            =  -1.0000000000000E+00
(PID.TID 0000.0001) %MON dynstat_theta_mean           =   5.6782164088681E-01
(PID.TID 0000.0001) %MON dynstat_theta_sd             =   8.6791122037646E-01
(PID.TID 0000.0001) %MON dynstat_theta_del2           =   8.6190172652207E-06
(PID.TID 0000.0001) %MON dynstat_salt_max             =   3.4700000000000E+01
(PID.TID 0000.0001) %MON dynstat_salt_min             =   3.4000000000000E+01
(PID.TID 0000.0001) %MON dynstat_salt_mean            =   3.4498742571689E+01
(PID.TID 0000.0001) %MON dynstat_salt_sd              =   2.7611064519451E-01
(PID.TID 0000.0001) %MON dynstat_salt_del2            =   3.4191695697125E-06
(PID.TID 0000.0001) %MON advcfl_uvel_max              =   8.8838314095304E-03
(PID.TID 0000.0001) %MON advcfl_vvel_max              =   4.7003180838083E-03
(PID.TID 0000.0001) %MON advcfl_wvel_max              =   1.3456634762214E-02
(PID.TID 0000.0001) %MON advcfl_W_hf_max              =   1.3456634762214E-02
(PID.TID 0000.0001) %MON pe_b_mean                    =  -8.2945519443337E-01
(PID.TID 0000.0001) %MON ke_max                       =   3.5300403963126E-03
(PID.TID 0000.0001) %MON ke_mean                      =   4.3511771593048E-06
(PID.TID 0000.0001) %MON ke_vol                       =   4.2724658558407E+12
(PID.TID 0000.0001) // =======================================================
(PID.TID 0000.0001) // End MONITOR dynamic field statistics
(PID.TID 0000.0001) // =======================================================
(PID.TID 0000.0001) // =======================================================
(PID.TID 0000.0001) // Begin OBCS MONITOR field statistics
(PID.TID 0000.0001) // =======================================================
(PID.TID 0000.0001) %MON obc_N_vVel_max               =   1.5028261725969E-05
(PID.TID 0000.0001) %MON obc_N_vVel_min               =   1.5028261725968E-05
(PID.TID 0000.0001) %MON obc_N_vVel_mean              =   1.5028261725968E-05
(PID.TID 0000.0001) %MON obc_N_vVel_sd                =   3.7671364966129E-12
(PID.TID 0000.0001) %MON obc_N_vVel_Int               =   9.9186527391390E+02
(PID.TID 0000.0001) // =======================================================
(PID.TID 0000.0001) // End OBCS MONITOR field statistics
(PID.TID 0000.0001) // =======================================================
 cg2d: Sum(rhs),rhsMax =   4.50757741715490E+00  2.99981818057370E+02
(PID.TID 0000.0001)      cg2d_init_res =   1.46249894021669E-05
(PID.TID 0000.0001)      cg2d_iters(min,last) =      -1      85
(PID.TID 0000.0001)      cg2d_last_res =   9.97845675379419E-12
(PID.TID 0000.0001) // =======================================================
(PID.TID 0000.0001) // Begin MONITOR dynamic field statistics
(PID.TID 0000.0001) // =======================================================
(PID.TID 0000.0001) %MON time_tsnumber                =                  1665
(PID.TID 0000.0001) %MON time_secondsf                =   1.6650000000000E+05
(PID.TID 0000.0001) %MON dynstat_eta_max              =   5.8145079323461E+00
(PID.TID 0000.0001) %MON dynstat_eta_min              =  -1.4199692953999E+01
(PID.TID 0000.0001) %MON dynstat_eta_mean             =  -2.5040579048750E+00
(PID.TID 0000.0001) %MON dynstat_eta_sd               =   4.9502517538187E+00
(PID.TID 0000.0001) %MON dynstat_eta_del2             =   2.0718200179428E-01
(PID.TID 0000.0001) %MON dynstat_uvel_max             =   2.0428060730845E-02
(PID.TID 0000.0001) %MON dynstat_uvel_min             =  -8.9012883648133E-02
(PID.TID 0000.0001) %MON dynstat_uvel_mean            =  -9.9670232773708E-08
(PID.TID 0000.0001) %MON dynstat_uvel_sd              =   2.6560381700727E-03
(PID.TID 0000.0001) %MON dynstat_uvel_del2            =   4.3620468781868E-06
(PID.TID 0000.0001) %MON dynstat_vvel_max             =   4.7039894856418E-02
(PID.TID 0000.0001) %MON dynstat_vvel_min             =  -3.2318218393229E-02
(PID.TID 0000.0001) %MON dynstat_vvel_mean            =   1.5368141843453E-05
(PID.TID 0000.0001) %MON dynstat_vvel_sd              =   1.3491088033587E-03
(PID.TID 0000.0001) %MON dynstat_vvel_del2            =   2.8094581498626E-06
(PID.TID 0000.0001) %MON dynstat_wvel_max             =   2.6937283110100E-03
(PID.TID 0000.0001) %MON dynstat_wvel_min             =  -2.6305865809302E-03
(PID.TID 0000.0001) %MON dynstat_wvel_mean            =   7.6957707386941E-09
(PID.TID 0000.0001) %MON dynstat_wvel_sd              =   4.8803355056444E-05
(PID.TID 0000.0001) %MON dynstat_wvel_del2            =   1.8652397964759E-07
(PID.TID 0000.0001) %MON dynstat_theta_max            =   1.2000000000000E+00
(PID.TID 0000.0001) %MON dynstat_theta_min            =  -1.0000000000000E+00
(PID.TID 0000.0001) %MON dynstat_theta_mean           =   5.6781923924627E-01
(PID.TID 0000.0001) %MON dynstat_theta_sd             =   8.6791005466318E-01
(PID.TID 0000.0001) %MON dynstat_theta_del2           =   8.6331802662807E-06
(PID.TID 0000.0001) %MON dynstat_salt_max             =   3.4700000000000E+01
(PID.TID 0000.0001) %MON dynstat_salt_min             =   3.4000000000000E+01
(PID.TID 0000.0001) %MON dynstat_salt_mean            =   3.4498741610373E+01
(PID.TID 0000.0001) %MON dynstat_salt_sd              =   2.7611020786968E-01
(PID.TID 0000.0001) %MON dynstat_salt_del2            =   3.4248095849824E-06
(PID.TID 0000.0001) %MON advcfl_uvel_max              =   8.9012883648133E-03
(PID.TID 0000.0001) %MON advcfl_vvel_max              =   4.7039894856418E-03
(PID.TID 0000.0001) %MON advcfl_wvel_max              =   1.3468641555050E-02
(PID.TID 0000.0001) %MON advcfl_W_hf_max              =   1.3468641555050E-02
(PID.TID 0000.0001) %MON pe_b_mean                    =  -8.2945312024225E-01
(PID.TID 0000.0001) %MON ke_max                       =   3.5424733270845E-03
(PID.TID 0000.0001) %MON ke_mean                      =   4.3674740065361E-06
(PID.TID 0000.0001) %MON ke_vol                       =   4.2724658758438E+12
(PID.TID 0000.0001) // =======================================================
(PID.TID 0000.0001) // End MONITOR dynamic field statistics
(PID.TID 0000.0001) // =======================================================
(PID.TID 0000.0001) // =======================================================
(PID.TID 0000.0001) // Begin OBCS MONITOR field statistics
(PID.TID 0000.0001) // =======================================================
(PID.TID 0000.0001) %MON obc_N_vVel_max               =   1.5025785812315E-05
(PID.TID 0000.0001) %MON obc_N_vVel_min               =   1.5025785812314E-05
(PID.TID 0000.0001) %MON obc_N_vVel_mean              =   1.5025785812315E-05
(PID.TID 0000.0001) %MON obc_N_vVel_sd                =  -1.0339757656913E-23
(PID.TID 0000.0001) %MON obc_N_vVel_Int               =   9.9170186361277E+02
(PID.TID 0000.0001) // =======================================================
(PID.TID 0000.0001) // End OBCS MONITOR field statistics
(PID.TID 0000.0001) // =======================================================
 cg2d: Sum(rhs),rhsMax =   4.50756995011544E+00  2.99981903562430E+02
(PID.TID 0000.0001)      cg2d_init_res =   1.46436044234851E-05
(PID.TID 0000.0001)      cg2d_iters(min,last) =      -1      85
(PID.TID 0000.0001)      cg2d_last_res =   9.98145273625121E-12
(PID.TID 0000.0001) // =======================================================
(PID.TID 0000.0001) // Begin MONITOR dynamic field statistics
(PID.TID 0000.0001) // =======================================================
(PID.TID 0000.0001) %MON time_tsnumber                =                  1666
(PID.TID 0000.0001) %MON time_secondsf                =   1.6660000000000E+05
(PID.TID 0000.0001) %MON dynstat_eta_max              =   5.8146390346641E+00
(PID.TID 0000.0001) %MON dynstat_eta_min              =  -1.4199722718000E+01
(PID.TID 0000.0001) %MON dynstat_eta_mean             =  -2.5040544705119E+00
(PID.TID 0000.0001) %MON dynstat_eta_sd               =   4.9502514341765E+00
(PID.TID 0000.0001) %MON dynstat_eta_del2             =   2.0718207586369E-01
(PID.TID 0000.0001) %MON dynstat_uvel_max             =   2.0467625638128E-02
(PID.TID 0000.0001) %MON dynstat_uvel_min             =  -8.9187541230958E-02
(PID.TID 0000.0001) %MON dynstat_uvel_mean            =  -9.9643635172285E-08
(PID.TID 0000.0001) %MON dynstat_uvel_sd              =   2.6610477617331E-03
(PID.TID 0000.0001) %MON dynstat_uvel_del2            =   4.3720408999512E-06
(PID.TID 0000.0001) %MON dynstat_vvel_max             =   4.7076537206261E-02
(PID.TID 0000.0001) %MON dynstat_vvel_min             =  -3.2377485355061E-02
(PID.TID 0000.0001) %MON dynstat_vvel_mean            =   1.5365220264138E-05
(PID.TID 0000.0001) %MON dynstat_vvel_sd              =   1.3515467775219E-03
(PID.TID 0000.0001) %MON dynstat_vvel_del2            =   2.8146261281609E-06
(PID.TID 0000.0001) %MON dynstat_wvel_max             =   2.6961251571776E-03
(PID.TID 0000.0001) %MON dynstat_wvel_min             =  -2.6318417446680E-03
(PID.TID 0000.0001) %MON dynstat_wvel_mean            =   7.6925756506704E-09
(PID.TID 0000.0001) %MON dynstat_wvel_sd              =   4.8883853268399E-05
(PID.TID 0000.0001) %MON dynstat_wvel_del2            =   1.8680280228564E-07
(PID.TID 0000.0001) %MON dynstat_theta_max            =   1.2000000000000E+00
(PID.TID 0000.0001) %MON dynstat_theta_min            =  -1.0000000000000E+00
(PID.TID 0000.0001) %MON dynstat_theta_mean           =   5.6781683394805E-01
(PID.TID 0000.0001) %MON dynstat_theta_sd             =   8.6790888757031E-01
(PID.TID 0000.0001) %MON dynstat_theta_del2           =   8.6473569163634E-06
(PID.TID 0000.0001) %MON dynstat_salt_max             =   3.4700000000000E+01
(PID.TID 0000.0001) %MON dynstat_salt_min             =   3.4000000000000E+01
(PID.TID 0000.0001) %MON dynstat_salt_mean            =   3.4498740647591E+01
(PID.TID 0000.0001) %MON dynstat_salt_sd              =   2.7610977007638E-01
(PID.TID 0000.0001) %MON dynstat_salt_del2            =   3.4304551714291E-06
(PID.TID 0000.0001) %MON advcfl_uvel_max              =   8.9187541230958E-03
(PID.TID 0000.0001) %MON advcfl_vvel_max              =   4.7076537206261E-03
(PID.TID 0000.0001) %MON advcfl_wvel_max              =   1.3480625785888E-02
(PID.TID 0000.0001) %MON advcfl_W_hf_max              =   1.3480625785888E-02
(PID.TID 0000.0001) %MON pe_b_mean                    =  -8.2945103464010E-01
(PID.TID 0000.0001) %MON ke_max                       =   3.5549315722818E-03
(PID.TID 0000.0001) %MON ke_mean                      =   4.3838201015518E-06
(PID.TID 0000.0001) %MON ke_vol                       =   4.2724658960450E+12
(PID.TID 0000.0001) // =======================================================
(PID.TID 0000.0001) // End MONITOR dynamic field statistics
(PID.TID 0000.0001) // =======================================================
(PID.TID 0000.0001) // =======================================================
(PID.TID 0000.0001) // Begin OBCS MONITOR field statistics
(PID.TID 0000.0001) // =======================================================
(PID.TID 0000.0001) %MON obc_N_vVel_max               =   1.5023215288492E-05
(PID.TID 0000.0001) %MON obc_N_vVel_min               =   1.5023215288492E-05
(PID.TID 0000.0001) %MON obc_N_vVel_mean              =   1.5023215288492E-05
(PID.TID 0000.0001) %MON obc_N_vVel_sd                =   3.9184869682718E-12
(PID.TID 0000.0001) %MON obc_N_vVel_Int               =   9.9153220904046E+02
(PID.TID 0000.0001) // =======================================================
(PID.TID 0000.0001) // End OBCS MONITOR field statistics
(PID.TID 0000.0001) // =======================================================
 cg2d: Sum(rhs),rhsMax =   4.50756242204554E+00  2.99981989112905E+02
(PID.TID 0000.0001)      cg2d_init_res =   1.46623709561985E-05
(PID.TID 0000.0001)      cg2d_iters(min,last) =      -1      85
(PID.TID 0000.0001)      cg2d_last_res =   9.98462817046059E-12
(PID.TID 0000.0001) // =======================================================
(PID.TID 0000.0001) // Begin MONITOR dynamic field statistics
(PID.TID 0000.0001) // =======================================================
(PID.TID 0000.0001) %MON time_tsnumber                =                  1667
(PID.TID 0000.0001) %MON time_secondsf                =   1.6670000000000E+05
(PID.TID 0000.0001) %MON dynstat_eta_max              =   5.8147704157476E+00
(PID.TID 0000.0001) %MON dynstat_eta_min              =  -1.4199752476905E+01
(PID.TID 0000.0001) %MON dynstat_eta_mean             =  -2.5040510026219E+00
(PID.TID 0000.0001) %MON dynstat_eta_sd               =   4.9502511044977E+00
(PID.TID 0000.0001) %MON dynstat_eta_del2             =   2.0718215001981E-01
(PID.TID 0000.0001) %MON dynstat_uvel_max             =   2.0507242577729E-02
(PID.TID 0000.0001) %MON dynstat_uvel_min             =  -8.9362285793319E-02
(PID.TID 0000.0001) %MON dynstat_uvel_mean            =  -9.9621474821066E-08
(PID.TID 0000.0001) %MON dynstat_uvel_sd              =   2.6660626452138E-03
(PID.TID 0000.0001) %MON dynstat_uvel_del2            =   4.3820527227384E-06
(PID.TID 0000.0001) %MON dynstat_vvel_max             =   4.7113107810573E-02
(PID.TID 0000.0001) %MON dynstat_vvel_min             =  -3.2436727182869E-02
(PID.TID 0000.0001) %MON dynstat_vvel_mean            =   1.5362330828120E-05
(PID.TID 0000.0001) %MON dynstat_vvel_sd              =   1.3539883790707E-03
(PID.TID 0000.0001) %MON dynstat_vvel_del2            =   2.8198022050213E-06
(PID.TID 0000.0001) %MON dynstat_wvel_max             =   2.6985174887888E-03
(PID.TID 0000.0001) %MON dynstat_wvel_min             =  -2.6330688109820E-03
(PID.TID 0000.0001) %MON dynstat_wvel_mean            =   7.6900547996936E-09
(PID.TID 0000.0001) %MON dynstat_wvel_sd              =   4.8964439237148E-05
(PID.TID 0000.0001) %MON dynstat_wvel_del2            =   1.8708229914275E-07
(PID.TID 0000.0001) %MON dynstat_theta_max            =   1.2000000000000E+00
(PID.TID 0000.0001) %MON dynstat_theta_min            =  -1.0000000000000E+00
(PID.TID 0000.0001) %MON dynstat_theta_mean           =   5.6781442499163E-01
(PID.TID 0000.0001) %MON dynstat_theta_sd             =   8.6790771909599E-01
(PID.TID 0000.0001) %MON dynstat_theta_del2           =   8.6615468544236E-06
(PID.TID 0000.0001) %MON dynstat_salt_max             =   3.4700000000000E+01
(PID.TID 0000.0001) %MON dynstat_salt_min             =   3.4000000000000E+01
(PID.TID 0000.0001) %MON dynstat_salt_mean            =   3.4498739683345E+01
(PID.TID 0000.0001) %MON dynstat_salt_sd              =   2.7610933181420E-01
(PID.TID 0000.0001) %MON dynstat_salt_del2            =   3.4361062528980E-06
(PID.TID 0000.0001) %MON advcfl_uvel_max              =   8.9362285793319E-03
(PID.TID 0000.0001) %MON advcfl_vvel_max              =   4.7113107810573E-03
(PID.TID 0000.0001) %MON advcfl_wvel_max              =   1.3492587443944E-02
(PID.TID 0000.0001) %MON advcfl_W_hf_max              =   1.3492587443944E-02
(PID.TID 0000.0001) %MON pe_b_mean                    =  -8.2944893763330E-01
(PID.TID 0000.0001) %MON ke_max                       =   3.5674151228466E-03
(PID.TID 0000.0001) %MON ke_mean                      =   4.4002154789117E-06
(PID.TID 0000.0001) %MON ke_vol                       =   4.2724659164452E+12
(PID.TID 0000.0001) // =======================================================
(PID.TID 0000.0001) // End MONITOR dynamic field statistics
(PID.TID 0000.0001) // =======================================================
(PID.TID 0000.0001) // =======================================================
(PID.TID 0000.0001) // Begin OBCS MONITOR field statistics
(PID.TID 0000.0001) // =======================================================
(PID.TID 0000.0001) %MON obc_N_vVel_max               =   1.5020623834037E-05
(PID.TID 0000.0001) %MON obc_N_vVel_min               =   1.5020623834037E-05
(PID.TID 0000.0001) %MON obc_N_vVel_mean              =   1.5020623834037E-05
(PID.TID 0000.0001) %MON obc_N_vVel_sd                =   3.4520386295046E-12
(PID.TID 0000.0001) %MON obc_N_vVel_Int               =   9.9136117304641E+02
(PID.TID 0000.0001) // =======================================================
(PID.TID 0000.0001) // End OBCS MONITOR field statistics
(PID.TID 0000.0001) // =======================================================
 cg2d: Sum(rhs),rhsMax =   4.50755483291019E+00  2.99982074715414E+02
(PID.TID 0000.0001)      cg2d_init_res =   1.46812879536985E-05
(PID.TID 0000.0001)      cg2d_iters(min,last) =      -1      85
(PID.TID 0000.0001)      cg2d_last_res =   9.98816297705635E-12
(PID.TID 0000.0001) // =======================================================
(PID.TID 0000.0001) // Begin MONITOR dynamic field statistics
(PID.TID 0000.0001) // =======================================================
(PID.TID 0000.0001) %MON time_tsnumber                =                  1668
(PID.TID 0000.0001) %MON time_secondsf                =   1.6680000000000E+05
(PID.TID 0000.0001) %MON dynstat_eta_max              =   5.8149020753874E+00
(PID.TID 0000.0001) %MON dynstat_eta_min              =  -1.4199782230891E+01
(PID.TID 0000.0001) %MON dynstat_eta_mean             =  -2.5040475012405E+00
(PID.TID 0000.0001) %MON dynstat_eta_sd               =   4.9502507648579E+00
(PID.TID 0000.0001) %MON dynstat_eta_del2             =   2.0718222426261E-01
(PID.TID 0000.0001) %MON dynstat_uvel_max             =   2.0546911555964E-02
(PID.TID 0000.0001) %MON dynstat_uvel_min             =  -8.9537116277794E-02
(PID.TID 0000.0001) %MON dynstat_uvel_mean            =  -9.9603715020940E-08
(PID.TID 0000.0001) %MON dynstat_uvel_sd              =   2.6710828128564E-03
(PID.TID 0000.0001) %MON dynstat_uvel_del2            =   4.3920823423826E-06
(PID.TID 0000.0001) %MON dynstat_vvel_max             =   4.7149606593148E-02
(PID.TID 0000.0001) %MON dynstat_vvel_min             =  -3.2495942610065E-02
(PID.TID 0000.0001) %MON dynstat_vvel_mean            =   1.5359558436828E-05
(PID.TID 0000.0001) %MON dynstat_vvel_sd              =   1.3564335692144E-03
(PID.TID 0000.0001) %MON dynstat_vvel_del2            =   2.8249861453095E-06
(PID.TID 0000.0001) %MON dynstat_wvel_max             =   2.7009053037637E-03
(PID.TID 0000.0001) %MON dynstat_wvel_min             =  -2.6342676199581E-03
(PID.TID 0000.0001) %MON dynstat_wvel_mean            =   7.6883074963873E-09
(PID.TID 0000.0001) %MON dynstat_wvel_sd              =   4.9044885938135E-05
(PID.TID 0000.0001) %MON dynstat_wvel_del2            =   1.8736165761350E-07
(PID.TID 0000.0001) %MON dynstat_theta_max            =   1.2000000000000E+00
(PID.TID 0000.0001) %MON dynstat_theta_min            =  -1.0000000000000E+00
(PID.TID 0000.0001) %MON dynstat_theta_mean           =   5.6781201237643E-01
(PID.TID 0000.0001) %MON dynstat_theta_sd             =   8.6790654923961E-01
(PID.TID 0000.0001) %MON dynstat_theta_del2           =   8.6757505832810E-06
(PID.TID 0000.0001) %MON dynstat_salt_max             =   3.4700000000000E+01
(PID.TID 0000.0001) %MON dynstat_salt_min             =   3.4000000000000E+01
(PID.TID 0000.0001) %MON dynstat_salt_mean            =   3.4498738717634E+01
(PID.TID 0000.0001) %MON dynstat_salt_sd              =   2.7610889308331E-01
(PID.TID 0000.0001) %MON dynstat_salt_del2            =   3.4417629988691E-06
(PID.TID 0000.0001) %MON advcfl_uvel_max              =   8.9537116277794E-03
(PID.TID 0000.0001) %MON advcfl_vvel_max              =   4.7149606593148E-03
(PID.TID 0000.0001) %MON advcfl_wvel_max              =   1.3504526518819E-02
(PID.TID 0000.0001) %MON advcfl_W_hf_max              =   1.3504526518819E-02
(PID.TID 0000.0001) %MON pe_b_mean                    =  -8.2944682924952E-01
(PID.TID 0000.0001) %MON ke_max                       =   3.5799239696961E-03
(PID.TID 0000.0001) %MON ke_mean                      =   4.4166601718509E-06
(PID.TID 0000.0001) %MON ke_vol                       =   4.2724659370444E+12
(PID.TID 0000.0001) // =======================================================
(PID.TID 0000.0001) // End MONITOR dynamic field statistics
(PID.TID 0000.0001) // =======================================================
(PID.TID 0000.0001) // =======================================================
(PID.TID 0000.0001) // Begin OBCS MONITOR field statistics
(PID.TID 0000.0001) // =======================================================
(PID.TID 0000.0001) %MON obc_N_vVel_max               =   1.5018085221786E-05
(PID.TID 0000.0001) %MON obc_N_vVel_min               =   1.5018085221786E-05
(PID.TID 0000.0001) %MON obc_N_vVel_mean              =   1.5018085221786E-05
(PID.TID 0000.0001) %MON obc_N_vVel_sd                =   9.0949470177293E-13
(PID.TID 0000.0001) %MON obc_N_vVel_Int               =   9.9119362463786E+02
(PID.TID 0000.0001) // =======================================================
(PID.TID 0000.0001) // End OBCS MONITOR field statistics
(PID.TID 0000.0001) // =======================================================
 cg2d: Sum(rhs),rhsMax =   4.50754718281561E+00  2.99982160376754E+02
(PID.TID 0000.0001)      cg2d_init_res =   1.47003457752209E-05
(PID.TID 0000.0001)      cg2d_iters(min,last) =      -1      85
(PID.TID 0000.0001)      cg2d_last_res =   9.99233926611953E-12
(PID.TID 0000.0001) // =======================================================
(PID.TID 0000.0001) // Begin MONITOR dynamic field statistics
(PID.TID 0000.0001) // =======================================================
(PID.TID 0000.0001) %MON time_tsnumber                =                  1669
(PID.TID 0000.0001) %MON time_secondsf                =   1.6690000000000E+05
(PID.TID 0000.0001) %MON dynstat_eta_max              =   5.8150340132029E+00
(PID.TID 0000.0001) %MON dynstat_eta_min              =  -1.4199811980216E+01
(PID.TID 0000.0001) %MON dynstat_eta_mean             =  -2.5040439664837E+00
(PID.TID 0000.0001) %MON dynstat_eta_sd               =   4.9502504153587E+00
(PID.TID 0000.0001) %MON dynstat_eta_del2             =   2.0718229859228E-01
(PID.TID 0000.0001) %MON dynstat_uvel_max             =   2.0586632578356E-02
(PID.TID 0000.0001) %MON dynstat_uvel_min             =  -8.9712031621898E-02
(PID.TID 0000.0001) %MON dynstat_uvel_mean            =  -9.9590226335708E-08
(PID.TID 0000.0001) %MON dynstat_uvel_sd              =   2.6761082570972E-03
(PID.TID 0000.0001) %MON dynstat_uvel_del2            =   4.4021297580963E-06
(PID.TID 0000.0001) %MON dynstat_vvel_max             =   4.7186033478652E-02
(PID.TID 0000.0001) %MON dynstat_vvel_min             =  -3.2555130372348E-02
(PID.TID 0000.0001) %MON dynstat_vvel_mean            =   1.5356984738918E-05
(PID.TID 0000.0001) %MON dynstat_vvel_sd              =   1.3588823104707E-03
(PID.TID 0000.0001) %MON dynstat_vvel_del2            =   2.8301777258016E-06
(PID.TID 0000.0001) %MON dynstat_wvel_max             =   2.7032886001025E-03
(PID.TID 0000.0001) %MON dynstat_wvel_min             =  -2.6354380145156E-03
(PID.TID 0000.0001) %MON dynstat_wvel_mean            =   7.6874140198362E-09
(PID.TID 0000.0001) %MON dynstat_wvel_sd              =   4.9124977905229E-05
(PID.TID 0000.0001) %MON dynstat_wvel_del2            =   1.8764009916346E-07
(PID.TID 0000.0001) %MON dynstat_theta_max            =   1.2000000000000E+00
(PID.TID 0000.0001) %MON dynstat_theta_min            =  -1.0000000000000E+00
(PID.TID 0000.0001) %MON dynstat_theta_mean           =   5.6780959610170E-01
(PID.TID 0000.0001) %MON dynstat_theta_sd             =   8.6790537800140E-01
(PID.TID 0000.0001) %MON dynstat_theta_del2           =   8.6899666736947E-06
(PID.TID 0000.0001) %MON dynstat_salt_max             =   3.4700000000000E+01
(PID.TID 0000.0001) %MON dynstat_salt_min             =   3.4000000000000E+01
(PID.TID 0000.0001) %MON dynstat_salt_mean            =   3.4498737750456E+01
(PID.TID 0000.0001) %MON dynstat_salt_sd              =   2.7610845388446E-01
(PID.TID 0000.0001) %MON dynstat_salt_del2            =   3.4474254519667E-06
(PID.TID 0000.0001) %MON advcfl_uvel_max              =   8.9712031621898E-03
(PID.TID 0000.0001) %MON advcfl_vvel_max              =   4.7186033478652E-03
(PID.TID 0000.0001) %MON advcfl_wvel_max              =   1.3516443000512E-02
(PID.TID 0000.0001) %MON advcfl_W_hf_max              =   1.3516443000512E-02
(PID.TID 0000.0001) %MON pe_b_mean                    =  -8.2944470953669E-01
(PID.TID 0000.0001) %MON ke_max                       =   3.5924581037461E-03
(PID.TID 0000.0001) %MON ke_mean                      =   4.4331542151721E-06
(PID.TID 0000.0001) %MON ke_vol                       =   4.2724659578426E+12
(PID.TID 0000.0001) // =======================================================
(PID.TID 0000.0001) // End MONITOR dynamic field statistics
(PID.TID 0000.0001) // =======================================================
(PID.TID 0000.0001) // =======================================================
(PID.TID 0000.0001) // Begin OBCS MONITOR field statistics
(PID.TID 0000.0001) // =======================================================
(PID.TID 0000.0001) %MON obc_N_vVel_max               =   1.5015671559866E-05
(PID.TID 0000.0001) %MON obc_N_vVel_min               =   1.5015671559866E-05
(PID.TID 0000.0001) %MON obc_N_vVel_mean              =   1.5015671559866E-05
(PID.TID 0000.0001) %MON obc_N_vVel_sd                =   3.8519543400292E-12
(PID.TID 0000.0001) %MON obc_N_vVel_Int               =   9.9103432295116E+02
(PID.TID 0000.0001) // =======================================================
(PID.TID 0000.0001) // End OBCS MONITOR field statistics
(PID.TID 0000.0001) // =======================================================
 cg2d: Sum(rhs),rhsMax =   4.50753947200525E+00  2.99982246103735E+02
(PID.TID 0000.0001)      cg2d_init_res =   1.47195699215734E-05
(PID.TID 0000.0001)      cg2d_iters(min,last) =      -1      85
(PID.TID 0000.0001)      cg2d_last_res =   9.99746468475310E-12
(PID.TID 0000.0001) // =======================================================
(PID.TID 0000.0001) // Begin MONITOR dynamic field statistics
(PID.TID 0000.0001) // =======================================================
(PID.TID 0000.0001) %MON time_tsnumber                =                  1670
(PID.TID 0000.0001) %MON time_secondsf                =   1.6700000000000E+05
(PID.TID 0000.0001) %MON dynstat_eta_max              =   5.8151662286517E+00
(PID.TID 0000.0001) %MON dynstat_eta_min              =  -1.4199841725209E+01
(PID.TID 0000.0001) %MON dynstat_eta_mean             =  -2.5040403985433E+00
(PID.TID 0000.0001) %MON dynstat_eta_sd               =   4.9502500561197E+00
(PID.TID 0000.0001) %MON dynstat_eta_del2             =   2.0718237300892E-01
(PID.TID 0000.0001) %MON dynstat_uvel_max             =   2.0626405648734E-02
(PID.TID 0000.0001) %MON dynstat_uvel_min             =  -8.9887030758923E-02
(PID.TID 0000.0001) %MON dynstat_uvel_mean            =  -9.9580775100864E-08
(PID.TID 0000.0001) %MON dynstat_uvel_sd              =   2.6811389704318E-03
(PID.TID 0000.0001) %MON dynstat_uvel_del2            =   4.4121949680604E-06
(PID.TID 0000.0001) %MON dynstat_vvel_max             =   4.7222388397826E-02
(PID.TID 0000.0001) %MON dynstat_vvel_min             =  -3.2614289206004E-02
(PID.TID 0000.0001) %MON dynstat_vvel_mean            =   1.5354686238995E-05
(PID.TID 0000.0001) %MON dynstat_vvel_sd              =   1.3613345689780E-03
(PID.TID 0000.0001) %MON dynstat_vvel_del2            =   2.8353767497135E-06
(PID.TID 0000.0001) %MON dynstat_wvel_max             =   2.7056673758645E-03
(PID.TID 0000.0001) %MON dynstat_wvel_min             =  -2.6365798403822E-03
(PID.TID 0000.0001) %MON dynstat_wvel_mean            =   7.6874346377329E-09
(PID.TID 0000.0001) %MON dynstat_wvel_sd              =   4.9204521961515E-05
(PID.TID 0000.0001) %MON dynstat_wvel_del2            =   1.8791691331440E-07
(PID.TID 0000.0001) %MON dynstat_theta_max            =   1.2000000000000E+00
(PID.TID 0000.0001) %MON dynstat_theta_min            =  -1.0000000000000E+00
(PID.TID 0000.0001) %MON dynstat_theta_mean           =   5.6780717616659E-01
(PID.TID 0000.0001) %MON dynstat_theta_sd             =   8.6790420538357E-01
(PID.TID 0000.0001) %MON dynstat_theta_del2           =   8.7041964832576E-06
(PID.TID 0000.0001) %MON dynstat_salt_max             =   3.4700000000000E+01
(PID.TID 0000.0001) %MON dynstat_salt_min             =   3.4000000000000E+01
(PID.TID 0000.0001) %MON dynstat_salt_mean            =   3.4498736781812E+01
(PID.TID 0000.0001) %MON dynstat_salt_sd              =   2.7610801421813E-01
(PID.TID 0000.0001) %MON dynstat_salt_del2            =   3.4530936479325E-06
(PID.TID 0000.0001) %MON advcfl_uvel_max              =   8.9887030758923E-03
(PID.TID 0000.0001) %MON advcfl_vvel_max              =   4.7222388397826E-03
(PID.TID 0000.0001) %MON advcfl_wvel_max              =   1.3528336879323E-02
(PID.TID 0000.0001) %MON advcfl_W_hf_max              =   1.3528336879323E-02
(PID.TID 0000.0001) %MON pe_b_mean                    =  -8.2944257856157E-01
(PID.TID 0000.0001) %MON ke_max                       =   3.6050175160430E-03
(PID.TID 0000.0001) %MON ke_mean                      =   4.4496976482851E-06
(PID.TID 0000.0001) %MON ke_vol                       =   4.2724659788391E+12
(PID.TID 0000.0001) // =======================================================
(PID.TID 0000.0001) // End MONITOR dynamic field statistics
(PID.TID 0000.0001) // =======================================================
(PID.TID 0000.0001) // =======================================================
(PID.TID 0000.0001) // Begin OBCS MONITOR field statistics
(PID.TID 0000.0001) // =======================================================
(PID.TID 0000.0001) %MON obc_N_vVel_max               =   1.5013451610182E-05
(PID.TID 0000.0001) %MON obc_N_vVel_min               =   1.5013451610182E-05
(PID.TID 0000.0001) %MON obc_N_vVel_mean              =   1.5013451610182E-05
(PID.TID 0000.0001) %MON obc_N_vVel_sd                =   5.5694948577711E-13
(PID.TID 0000.0001) %MON obc_N_vVel_Int               =   9.9088780627198E+02
(PID.TID 0000.0001) // =======================================================
(PID.TID 0000.0001) // End OBCS MONITOR field statistics
(PID.TID 0000.0001) // =======================================================
 cg2d: Sum(rhs),rhsMax =   4.50753170085149E+00  2.99982331903055E+02
(PID.TID 0000.0001)      cg2d_init_res =   1.47389036431246E-05
(PID.TID 0000.0001)      cg2d_iters(min,last) =      -1      86
(PID.TID 0000.0001)      cg2d_last_res =   9.13906297020241E-12
(PID.TID 0000.0001) // =======================================================
(PID.TID 0000.0001) // Begin MONITOR dynamic field statistics
(PID.TID 0000.0001) // =======================================================
(PID.TID 0000.0001) %MON time_tsnumber                =                  1671
(PID.TID 0000.0001) %MON time_secondsf                =   1.6710000000000E+05
(PID.TID 0000.0001) %MON dynstat_eta_max              =   5.8152987206071E+00
(PID.TID 0000.0001) %MON dynstat_eta_min              =  -1.4199871466576E+01
(PID.TID 0000.0001) %MON dynstat_eta_mean             =  -2.5040367976822E+00
(PID.TID 0000.0001) %MON dynstat_eta_sd               =   4.9502496872842E+00
(PID.TID 0000.0001) %MON dynstat_eta_del2             =   2.0718244751299E-01
(PID.TID 0000.0001) %MON dynstat_uvel_max             =   2.0666230787882E-02
(PID.TID 0000.0001) %MON dynstat_uvel_min             =  -9.0062112618062E-02
(PID.TID 0000.0001) %MON dynstat_uvel_mean            =  -9.9575431841491E-08
(PID.TID 0000.0001) %MON dynstat_uvel_sd              =   2.6861749454132E-03
(PID.TID 0000.0001) %MON dynstat_uvel_del2            =   4.4222779719543E-06
(PID.TID 0000.0001) %MON dynstat_vvel_max             =   4.7258671286690E-02
(PID.TID 0000.0001) %MON dynstat_vvel_min             =  -3.2673417837382E-02
(PID.TID 0000.0001) %MON dynstat_vvel_mean            =   1.5352732559832E-05
(PID.TID 0000.0001) %MON dynstat_vvel_sd              =   1.3637903164432E-03
(PID.TID 0000.0001) %MON dynstat_vvel_del2            =   2.8405830525798E-06
(PID.TID 0000.0001) %MON dynstat_wvel_max             =   2.7080416314321E-03
(PID.TID 0000.0001) %MON dynstat_wvel_min             =  -2.6376929470599E-03
(PID.TID 0000.0001) %MON dynstat_wvel_mean            =   7.6884075508032E-09
(PID.TID 0000.0001) %MON dynstat_wvel_sd              =   4.9283356706733E-05
(PID.TID 0000.0001) %MON dynstat_wvel_del2            =   1.8819149025909E-07
(PID.TID 0000.0001) %MON dynstat_theta_max            =   1.2000000000000E+00
(PID.TID 0000.0001) %MON dynstat_theta_min            =  -1.0000000000000E+00
(PID.TID 0000.0001) %MON dynstat_theta_mean           =   5.6780475257004E-01
(PID.TID 0000.0001) %MON dynstat_theta_sd             =   8.6790303138769E-01
(PID.TID 0000.0001) %MON dynstat_theta_del2           =   8.7184404817016E-06
(PID.TID 0000.0001) %MON dynstat_salt_max             =   3.4700000000000E+01
(PID.TID 0000.0001) %MON dynstat_salt_min             =   3.4000000000000E+01
(PID.TID 0000.0001) %MON dynstat_salt_mean            =   3.4498735811702E+01
(PID.TID 0000.0001) %MON dynstat_salt_sd              =   2.7610757408527E-01
(PID.TID 0000.0001) %MON dynstat_salt_del2            =   3.4587676115763E-06
(PID.TID 0000.0001) %MON advcfl_uvel_max              =   9.0062112618062E-03
(PID.TID 0000.0001) %MON advcfl_vvel_max              =   4.7258671286690E-03
(PID.TID 0000.0001) %MON advcfl_wvel_max              =   1.3540208157161E-02
(PID.TID 0000.0001) %MON advcfl_W_hf_max              =   1.3540208157161E-02
(PID.TID 0000.0001) %MON pe_b_mean                    =  -8.2944043640793E-01
(PID.TID 0000.0001) %MON ke_max                       =   3.6176021975333E-03
(PID.TID 0000.0001) %MON ke_mean                      =   4.4662905178775E-06
(PID.TID 0000.0001) %MON ke_vol                       =   4.2724660000327E+12
(PID.TID 0000.0001) // =======================================================
(PID.TID 0000.0001) // End MONITOR dynamic field statistics
(PID.TID 0000.0001) // =======================================================
(PID.TID 0000.0001) // =======================================================
(PID.TID 0000.0001) // Begin OBCS MONITOR field statistics
(PID.TID 0000.0001) // =======================================================
(PID.TID 0000.0001) %MON obc_N_vVel_max               =   1.5011489244198E-05
(PID.TID 0000.0001) %MON obc_N_vVel_min               =   1.5011489244198E-05
(PID.TID 0000.0001) %MON obc_N_vVel_mean              =   1.5011489244198E-05
(PID.TID 0000.0001) %MON obc_N_vVel_sd                =  -1.7163997710475E-23
(PID.TID 0000.0001) %MON obc_N_vVel_Int               =   9.9075829011710E+02
(PID.TID 0000.0001) // =======================================================
(PID.TID 0000.0001) // End OBCS MONITOR field statistics
(PID.TID 0000.0001) // =======================================================
 cg2d: Sum(rhs),rhsMax =   4.50752386984211E+00  2.99982417781445E+02
(PID.TID 0000.0001)      cg2d_init_res =   1.47583504329496E-05
(PID.TID 0000.0001)      cg2d_iters(min,last) =      -1      86
(PID.TID 0000.0001)      cg2d_last_res =   9.14765411593287E-12
(PID.TID 0000.0001) // =======================================================
(PID.TID 0000.0001) // Begin MONITOR dynamic field statistics
(PID.TID 0000.0001) // =======================================================
(PID.TID 0000.0001) %MON time_tsnumber                =                  1672
(PID.TID 0000.0001) %MON time_secondsf                =   1.6720000000000E+05
(PID.TID 0000.0001) %MON dynstat_eta_max              =   5.8154314891431E+00
(PID.TID 0000.0001) %MON dynstat_eta_min              =  -1.4199901204107E+01
(PID.TID 0000.0001) %MON dynstat_eta_mean             =  -2.5040331642274E+00
(PID.TID 0000.0001) %MON dynstat_eta_sd               =   4.9502493089970E+00
(PID.TID 0000.0001) %MON dynstat_eta_del2             =   2.0718252210379E-01
(PID.TID 0000.0001) %MON dynstat_uvel_max             =   2.0706107940500E-02
(PID.TID 0000.0001) %MON dynstat_uvel_min             =  -9.0237276113426E-02
(PID.TID 0000.0001) %MON dynstat_uvel_mean            =  -9.9573267710130E-08
(PID.TID 0000.0001) %MON dynstat_uvel_sd              =   2.6912161745721E-03
(PID.TID 0000.0001) %MON dynstat_uvel_del2            =   4.4323787678977E-06
(PID.TID 0000.0001) %MON dynstat_vvel_max             =   4.7294882060483E-02
(PID.TID 0000.0001) %MON dynstat_vvel_min             =  -3.2732515000292E-02
(PID.TID 0000.0001) %MON dynstat_vvel_mean            =   1.5351184873304E-05
(PID.TID 0000.0001) %MON dynstat_vvel_sd              =   1.3662495318999E-03
(PID.TID 0000.0001) %MON dynstat_vvel_del2            =   2.8457965106450E-06
(PID.TID 0000.0001) %MON dynstat_wvel_max             =   2.7104113582831E-03
(PID.TID 0000.0001) %MON dynstat_wvel_min             =  -2.6387771855306E-03
(PID.TID 0000.0001) %MON dynstat_wvel_mean            =   7.6903486346600E-09
(PID.TID 0000.0001) %MON dynstat_wvel_sd              =   4.9361360073877E-05
(PID.TID 0000.0001) %MON dynstat_wvel_del2            =   1.8846334554716E-07
(PID.TID 0000.0001) %MON dynstat_theta_max            =   1.2000000000000E+00
(PID.TID 0000.0001) %MON dynstat_theta_min            =  -1.0000000000000E+00
(PID.TID 0000.0001) %MON dynstat_theta_mean           =   5.6780232531087E-01
(PID.TID 0000.0001) %MON dynstat_theta_sd             =   8.6790185601561E-01
(PID.TID 0000.0001) %MON dynstat_theta_del2           =   8.7326986320619E-06
(PID.TID 0000.0001) %MON dynstat_salt_max             =   3.4700000000000E+01
(PID.TID 0000.0001) %MON dynstat_salt_min             =   3.4000000000000E+01
(PID.TID 0000.0001) %MON dynstat_salt_mean            =   3.4498734840124E+01
(PID.TID 0000.0001) %MON dynstat_salt_sd              =   2.7610713348673E-01
(PID.TID 0000.0001) %MON dynstat_salt_del2            =   3.4644473536969E-06
(PID.TID 0000.0001) %MON advcfl_uvel_max              =   9.0237276113426E-03
(PID.TID 0000.0001) %MON advcfl_vvel_max              =   4.7294882060483E-03
(PID.TID 0000.0001) %MON advcfl_wvel_max              =   1.3552056791416E-02
(PID.TID 0000.0001) %MON advcfl_W_hf_max              =   1.3552056791416E-02
(PID.TID 0000.0001) %MON pe_b_mean                    =  -8.2943828317443E-01
(PID.TID 0000.0001) %MON ke_max                       =   3.6302121397697E-03
(PID.TID 0000.0001) %MON ke_mean                      =   4.4829328801524E-06
(PID.TID 0000.0001) %MON ke_vol                       =   4.2724660214218E+12
(PID.TID 0000.0001) // =======================================================
(PID.TID 0000.0001) // End MONITOR dynamic field statistics
(PID.TID 0000.0001) // =======================================================
(PID.TID 0000.0001) // =======================================================
(PID.TID 0000.0001) // Begin OBCS MONITOR field statistics
(PID.TID 0000.0001) // =======================================================
(PID.TID 0000.0001) %MON obc_N_vVel_max               =   1.5009841988422E-05
(PID.TID 0000.0001) %MON obc_N_vVel_min               =   1.5009841988422E-05
(PID.TID 0000.0001) %MON obc_N_vVel_mean              =   1.5009841988422E-05
(PID.TID 0000.0001) %MON obc_N_vVel_sd                =   1.2659630471785E-12
(PID.TID 0000.0001) %MON obc_N_vVel_Int               =   9.9064957123583E+02
(PID.TID 0000.0001) // =======================================================
(PID.TID 0000.0001) // End OBCS MONITOR field statistics
(PID.TID 0000.0001) // =======================================================
 cg2d: Sum(rhs),rhsMax =   4.50751597958415E+00  2.99982503744355E+02
(PID.TID 0000.0001)      cg2d_init_res =   1.47778960105104E-05
(PID.TID 0000.0001)      cg2d_iters(min,last) =      -1      86
(PID.TID 0000.0001)      cg2d_last_res =   9.15699116579607E-12
(PID.TID 0000.0001) // =======================================================
(PID.TID 0000.0001) // Begin MONITOR dynamic field statistics
(PID.TID 0000.0001) // =======================================================
(PID.TID 0000.0001) %MON time_tsnumber                =                  1673
(PID.TID 0000.0001) %MON time_secondsf                =   1.6730000000000E+05
(PID.TID 0000.0001) %MON dynstat_eta_max              =   5.8155645328573E+00
(PID.TID 0000.0001) %MON dynstat_eta_min              =  -1.4199930938616E+01
(PID.TID 0000.0001) %MON dynstat_eta_mean             =  -2.5040294985617E+00
(PID.TID 0000.0001) %MON dynstat_eta_sd               =   4.9502489214248E+00
(PID.TID 0000.0001) %MON dynstat_eta_del2             =   2.0718259678178E-01
(PID.TID 0000.0001) %MON dynstat_uvel_max             =   2.0746037166543E-02
(PID.TID 0000.0001) %MON dynstat_uvel_min             =  -9.0412520166424E-02
(PID.TID 0000.0001) %MON dynstat_uvel_mean            =  -9.9573789279688E-08
(PID.TID 0000.0001) %MON dynstat_uvel_sd              =   2.6962626504772E-03
(PID.TID 0000.0001) %MON dynstat_uvel_del2            =   4.4424973540192E-06
(PID.TID 0000.0001) %MON dynstat_vvel_max             =   4.7331020662851E-02
(PID.TID 0000.0001) %MON dynstat_vvel_min             =  -3.2791579410247E-02
(PID.TID 0000.0001) %MON dynstat_vvel_mean            =   1.5350094540293E-05
(PID.TID 0000.0001) %MON dynstat_vvel_sd              =   1.3687122027744E-03
(PID.TID 0000.0001) %MON dynstat_vvel_del2            =   2.8510170466938E-06
(PID.TID 0000.0001) %MON dynstat_wvel_max             =   2.7127765612518E-03
(PID.TID 0000.0001) %MON dynstat_wvel_min             =  -2.6398324139897E-03
(PID.TID 0000.0001) %MON dynstat_wvel_mean            =   7.6932469168642E-09
(PID.TID 0000.0001) %MON dynstat_wvel_sd              =   4.9438454645749E-05
(PID.TID 0000.0001) %MON dynstat_wvel_del2            =   1.8873213843646E-07
(PID.TID 0000.0001) %MON dynstat_theta_max            =   1.2000000000000E+00
(PID.TID 0000.0001) %MON dynstat_theta_min            =  -1.0000000000000E+00
(PID.TID 0000.0001) %MON dynstat_theta_mean           =   5.6779989438766E-01
(PID.TID 0000.0001) %MON dynstat_theta_sd             =   8.6790067926822E-01
(PID.TID 0000.0001) %MON dynstat_theta_del2           =   8.7469709561342E-06
(PID.TID 0000.0001) %MON dynstat_salt_max             =   3.4700000000000E+01
(PID.TID 0000.0001) %MON dynstat_salt_min             =   3.4000000000000E+01
(PID.TID 0000.0001) %MON dynstat_salt_mean            =   3.4498733867077E+01
(PID.TID 0000.0001) %MON dynstat_salt_sd              =   2.7610669242309E-01
(PID.TID 0000.0001) %MON dynstat_salt_del2            =   3.4701329007987E-06
(PID.TID 0000.0001) %MON advcfl_uvel_max              =   9.0412520166424E-03
(PID.TID 0000.0001) %MON advcfl_vvel_max              =   4.7331020662851E-03
(PID.TID 0000.0001) %MON advcfl_wvel_max              =   1.3563882806259E-02
(PID.TID 0000.0001) %MON advcfl_W_hf_max              =   1.3563882806259E-02
(PID.TID 0000.0001) %MON pe_b_mean                    =  -8.2943611897187E-01
(PID.TID 0000.0001) %MON ke_max                       =   3.6428473331757E-03
(PID.TID 0000.0001) %MON ke_mean                      =   4.4996248025144E-06
(PID.TID 0000.0001) %MON ke_vol                       =   4.2724660430045E+12
(PID.TID 0000.0001) // =======================================================
(PID.TID 0000.0001) // End MONITOR dynamic field statistics
(PID.TID 0000.0001) // =======================================================
(PID.TID 0000.0001) // =======================================================
(PID.TID 0000.0001) // Begin OBCS MONITOR field statistics
(PID.TID 0000.0001) // =======================================================
(PID.TID 0000.0001) %MON obc_N_vVel_max               =   1.5008559818391E-05
(PID.TID 0000.0001) %MON obc_N_vVel_min               =   1.5008559818390E-05
(PID.TID 0000.0001) %MON obc_N_vVel_mean              =   1.5008559818390E-05
(PID.TID 0000.0001) %MON obc_N_vVel_sd                =   3.6978817586920E-12
(PID.TID 0000.0001) %MON obc_N_vVel_Int               =   9.9056494801374E+02
(PID.TID 0000.0001) // =======================================================
(PID.TID 0000.0001) // End OBCS MONITOR field statistics
(PID.TID 0000.0001) // =======================================================
 cg2d: Sum(rhs),rhsMax =   4.50750803075980E+00  2.99982589797641E+02
(PID.TID 0000.0001)      cg2d_init_res =   1.47975315944104E-05
(PID.TID 0000.0001)      cg2d_iters(min,last) =      -1      86
(PID.TID 0000.0001)      cg2d_last_res =   9.16745933498434E-12
(PID.TID 0000.0001) // =======================================================
(PID.TID 0000.0001) // Begin MONITOR dynamic field statistics
(PID.TID 0000.0001) // =======================================================
(PID.TID 0000.0001) %MON time_tsnumber                =                  1674
(PID.TID 0000.0001) %MON time_secondsf                =   1.6740000000000E+05
(PID.TID 0000.0001) %MON dynstat_eta_max              =   5.8156978507694E+00
(PID.TID 0000.0001) %MON dynstat_eta_min              =  -1.4199960670617E+01
(PID.TID 0000.0001) %MON dynstat_eta_mean             =  -2.5040258011129E+00
(PID.TID 0000.0001) %MON dynstat_eta_sd               =   4.9502485247368E+00
(PID.TID 0000.0001) %MON dynstat_eta_del2             =   2.0718267154702E-01
(PID.TID 0000.0001) %MON dynstat_uvel_max             =   2.0786018445989E-02
(PID.TID 0000.0001) %MON dynstat_uvel_min             =  -9.0587843683720E-02
(PID.TID 0000.0001) %MON dynstat_uvel_mean            =  -9.9576483330670E-08
(PID.TID 0000.0001) %MON dynstat_uvel_sd              =   2.7013143656863E-03
(PID.TID 0000.0001) %MON dynstat_uvel_del2            =   4.4526337280075E-06
(PID.TID 0000.0001) %MON dynstat_vvel_max             =   4.7367087018149E-02
(PID.TID 0000.0001) %MON dynstat_vvel_min             =  -3.2850609789268E-02
(PID.TID 0000.0001) %MON dynstat_vvel_mean            =   1.5349501972324E-05
(PID.TID 0000.0001) %MON dynstat_vvel_sd              =   1.3711783256623E-03
(PID.TID 0000.0001) %MON dynstat_vvel_del2            =   2.8562446319276E-06
(PID.TID 0000.0001) %MON dynstat_wvel_max             =   2.7151372366859E-03
(PID.TID 0000.0001) %MON dynstat_wvel_min             =  -2.6408584907005E-03
(PID.TID 0000.0001) %MON dynstat_wvel_mean            =   7.6970811751196E-09
(PID.TID 0000.0001) %MON dynstat_wvel_sd              =   4.9514610851238E-05
(PID.TID 0000.0001) %MON dynstat_wvel_del2            =   1.8899768348586E-07
(PID.TID 0000.0001) %MON dynstat_theta_max            =   1.2000000000000E+00
(PID.TID 0000.0001) %MON dynstat_theta_min            =  -1.0000000000000E+00
(PID.TID 0000.0001) %MON dynstat_theta_mean           =   5.6779745979881E-01
(PID.TID 0000.0001) %MON dynstat_theta_sd             =   8.6789950114751E-01
(PID.TID 0000.0001) %MON dynstat_theta_del2           =   8.7612577300491E-06
(PID.TID 0000.0001) %MON dynstat_salt_max             =   3.4700000000000E+01
(PID.TID 0000.0001) %MON dynstat_salt_min             =   3.4000000000000E+01
(PID.TID 0000.0001) %MON dynstat_salt_mean            =   3.4498732892562E+01
(PID.TID 0000.0001) %MON dynstat_salt_sd              =   2.7610625089509E-01
(PID.TID 0000.0001) %MON dynstat_salt_del2            =   3.4758243269875E-06
(PID.TID 0000.0001) %MON advcfl_uvel_max              =   9.0587843683720E-03
(PID.TID 0000.0001) %MON advcfl_vvel_max              =   4.7367087018149E-03
(PID.TID 0000.0001) %MON advcfl_wvel_max              =   1.3575686183430E-02
(PID.TID 0000.0001) %MON advcfl_W_hf_max              =   1.3575686183430E-02
(PID.TID 0000.0001) %MON pe_b_mean                    =  -8.2943394392061E-01
(PID.TID 0000.0001) %MON ke_max                       =   3.6555077689698E-03
(PID.TID 0000.0001) %MON ke_mean                      =   4.5163663645908E-06
(PID.TID 0000.0001) %MON ke_vol                       =   4.2724660647785E+12
(PID.TID 0000.0001) // =======================================================
(PID.TID 0000.0001) // End MONITOR dynamic field statistics
(PID.TID 0000.0001) // =======================================================
(PID.TID 0000.0001) // =======================================================
(PID.TID 0000.0001) // Begin OBCS MONITOR field statistics
(PID.TID 0000.0001) // =======================================================
(PID.TID 0000.0001) %MON obc_N_vVel_max               =   1.5007683378444E-05
(PID.TID 0000.0001) %MON obc_N_vVel_min               =   1.5007683378443E-05
(PID.TID 0000.0001) %MON obc_N_vVel_mean              =   1.5007683378443E-05
(PID.TID 0000.0001) %MON obc_N_vVel_sd                =   4.3942573234034E-12
(PID.TID 0000.0001) %MON obc_N_vVel_Int               =   9.9050710297725E+02
(PID.TID 0000.0001) // =======================================================
(PID.TID 0000.0001) // End OBCS MONITOR field statistics
(PID.TID 0000.0001) // =======================================================
 cg2d: Sum(rhs),rhsMax =   4.50750002412884E+00  2.99982675946264E+02
(PID.TID 0000.0001)      cg2d_init_res =   1.48172441487471E-05
(PID.TID 0000.0001)      cg2d_iters(min,last) =      -1      86
(PID.TID 0000.0001)      cg2d_last_res =   9.17914711460670E-12
(PID.TID 0000.0001) // =======================================================
(PID.TID 0000.0001) // Begin MONITOR dynamic field statistics
(PID.TID 0000.0001) // =======================================================
(PID.TID 0000.0001) %MON time_tsnumber                =                  1675
(PID.TID 0000.0001) %MON time_secondsf                =   1.6750000000000E+05
(PID.TID 0000.0001) %MON dynstat_eta_max              =   5.8158314418191E+00
(PID.TID 0000.0001) %MON dynstat_eta_min              =  -1.4199990400636E+01
(PID.TID 0000.0001) %MON dynstat_eta_mean             =  -2.5040220723445E+00
(PID.TID 0000.0001) %MON dynstat_eta_sd               =   4.9502481191041E+00
(PID.TID 0000.0001) %MON dynstat_eta_del2             =   2.0718274639955E-01
(PID.TID 0000.0001) %MON dynstat_uvel_max             =   2.0826051780681E-02
(PID.TID 0000.0001) %MON dynstat_uvel_min             =  -9.0763245568173E-02
(PID.TID 0000.0001) %MON dynstat_uvel_mean            =  -9.9580814990901E-08
(PID.TID 0000.0001) %MON dynstat_uvel_sd              =   2.7063713127389E-03
(PID.TID 0000.0001) %MON dynstat_uvel_del2            =   4.4627878868174E-06
(PID.TID 0000.0001) %MON dynstat_vvel_max             =   4.7403081053178E-02
(PID.TID 0000.0001) %MON dynstat_vvel_min             =  -3.2909604854224E-02
(PID.TID 0000.0001) %MON dynstat_vvel_mean            =   1.5349435918206E-05
(PID.TID 0000.0001) %MON dynstat_vvel_sd              =   1.3736479065680E-03
(PID.TID 0000.0001) %MON dynstat_vvel_del2            =   2.8614792868324E-06
(PID.TID 0000.0001) %MON dynstat_wvel_max             =   2.7174933829047E-03
(PID.TID 0000.0001) %MON dynstat_wvel_min             =  -2.6418552815820E-03
(PID.TID 0000.0001) %MON dynstat_wvel_mean            =   7.7017953887890E-09
(PID.TID 0000.0001) %MON dynstat_wvel_sd              =   4.9589847440068E-05
(PID.TID 0000.0001) %MON dynstat_wvel_del2            =   1.8925995416005E-07
(PID.TID 0000.0001) %MON dynstat_theta_max            =   1.2000000000000E+00
(PID.TID 0000.0001) %MON dynstat_theta_min            =  -1.0000000000000E+00
(PID.TID 0000.0001) %MON dynstat_theta_mean           =   5.6779502154243E-01
(PID.TID 0000.0001) %MON dynstat_theta_sd             =   8.6789832165550E-01
(PID.TID 0000.0001) %MON dynstat_theta_del2           =   8.7755586139312E-06
(PID.TID 0000.0001) %MON dynstat_salt_max             =   3.4700000000000E+01
(PID.TID 0000.0001) %MON dynstat_salt_min             =   3.4000000000000E+01
(PID.TID 0000.0001) %MON dynstat_salt_mean            =   3.4498731916577E+01
(PID.TID 0000.0001) %MON dynstat_salt_sd              =   2.7610580890391E-01
(PID.TID 0000.0001) %MON dynstat_salt_del2            =   3.4815215268574E-06
(PID.TID 0000.0001) %MON advcfl_uvel_max              =   9.0763245568173E-03
(PID.TID 0000.0001) %MON advcfl_vvel_max              =   4.7403081053178E-03
(PID.TID 0000.0001) %MON advcfl_wvel_max              =   1.3587466914523E-02
(PID.TID 0000.0001) %MON advcfl_W_hf_max              =   1.3587466914523E-02
(PID.TID 0000.0001) %MON pe_b_mean                    =  -8.2943175814733E-01
(PID.TID 0000.0001) %MON ke_max                       =   3.6681934381700E-03
(PID.TID 0000.0001) %MON ke_mean                      =   4.5331576586416E-06
(PID.TID 0000.0001) %MON ke_vol                       =   4.2724660867414E+12
(PID.TID 0000.0001) // =======================================================
(PID.TID 0000.0001) // End MONITOR dynamic field statistics
(PID.TID 0000.0001) // =======================================================
(PID.TID 0000.0001) // =======================================================
(PID.TID 0000.0001) // Begin OBCS MONITOR field statistics
(PID.TID 0000.0001) // =======================================================
(PID.TID 0000.0001) %MON obc_N_vVel_max               =   1.5007244728259E-05
(PID.TID 0000.0001) %MON obc_N_vVel_min               =   1.5007244728259E-05
(PID.TID 0000.0001) %MON obc_N_vVel_mean              =   1.5007244728259E-05
(PID.TID 0000.0001) %MON obc_N_vVel_sd                =   4.5983480086208E-12
(PID.TID 0000.0001) %MON obc_N_vVel_Int               =   9.9047815206509E+02
(PID.TID 0000.0001) // =======================================================
(PID.TID 0000.0001) // End OBCS MONITOR field statistics
(PID.TID 0000.0001) // =======================================================
 cg2d: Sum(rhs),rhsMax =   4.50749196050402E+00  2.99982762194475E+02
(PID.TID 0000.0001)      cg2d_init_res =   1.48370192465545E-05
(PID.TID 0000.0001)      cg2d_iters(min,last) =      -1      86
(PID.TID 0000.0001)      cg2d_last_res =   9.19194082778075E-12
(PID.TID 0000.0001) // =======================================================
(PID.TID 0000.0001) // Begin MONITOR dynamic field statistics
(PID.TID 0000.0001) // =======================================================
(PID.TID 0000.0001) %MON time_tsnumber                =                  1676
(PID.TID 0000.0001) %MON time_secondsf                =   1.6760000000000E+05
(PID.TID 0000.0001) %MON dynstat_eta_max              =   5.8159653049014E+00
(PID.TID 0000.0001) %MON dynstat_eta_min              =  -1.4200020129211E+01
(PID.TID 0000.0001) %MON dynstat_eta_mean             =  -2.5040183127433E+00
(PID.TID 0000.0001) %MON dynstat_eta_sd               =   4.9502477046961E+00
(PID.TID 0000.0001) %MON dynstat_eta_del2             =   2.0718282133942E-01
(PID.TID 0000.0001) %MON dynstat_uvel_max             =   2.0866137173211E-02
(PID.TID 0000.0001) %MON dynstat_uvel_min             =  -9.0938724716770E-02
(PID.TID 0000.0001) %MON dynstat_uvel_mean            =  -9.9586215950859E-08
(PID.TID 0000.0001) %MON dynstat_uvel_sd              =   2.7114334841866E-03
(PID.TID 0000.0001) %MON dynstat_uvel_del2            =   4.4729598272607E-06
(PID.TID 0000.0001) %MON dynstat_vvel_max             =   4.7439002693681E-02
(PID.TID 0000.0001) %MON dynstat_vvel_min             =  -3.2968563320258E-02
(PID.TID 0000.0001) %MON dynstat_vvel_mean            =   1.5349912824758E-05
(PID.TID 0000.0001) %MON dynstat_vvel_sd              =   1.3761209607164E-03
(PID.TID 0000.0001) %MON dynstat_vvel_del2            =   2.8667210791863E-06
(PID.TID 0000.0001) %MON dynstat_wvel_max             =   2.7198449984631E-03
(PID.TID 0000.0001) %MON dynstat_wvel_min             =  -2.6428226550360E-03
(PID.TID 0000.0001) %MON dynstat_wvel_mean            =   7.7073206118756E-09
(PID.TID 0000.0001) %MON dynstat_wvel_sd              =   4.9664229721552E-05
(PID.TID 0000.0001) %MON dynstat_wvel_del2            =   1.8951907992534E-07
(PID.TID 0000.0001) %MON dynstat_theta_max            =   1.2000000000000E+00
(PID.TID 0000.0001) %MON dynstat_theta_min            =  -1.0000000000000E+00
(PID.TID 0000.0001) %MON dynstat_theta_mean           =   5.6779257961638E-01
(PID.TID 0000.0001) %MON dynstat_theta_sd             =   8.6789714079424E-01
(PID.TID 0000.0001) %MON dynstat_theta_del2           =   8.7898734821020E-06
(PID.TID 0000.0001) %MON dynstat_salt_max             =   3.4700000000000E+01
(PID.TID 0000.0001) %MON dynstat_salt_min             =   3.4000000000000E+01
(PID.TID 0000.0001) %MON dynstat_salt_mean            =   3.4498730939121E+01
(PID.TID 0000.0001) %MON dynstat_salt_sd              =   2.7610536645038E-01
(PID.TID 0000.0001) %MON dynstat_salt_del2            =   3.4872244822566E-06
(PID.TID 0000.0001) %MON advcfl_uvel_max              =   9.0938724716770E-03
(PID.TID 0000.0001) %MON advcfl_vvel_max              =   4.7439002693681E-03
(PID.TID 0000.0001) %MON advcfl_wvel_max              =   1.3599224992315E-02
(PID.TID 0000.0001) %MON advcfl_W_hf_max              =   1.3599224992315E-02
(PID.TID 0000.0001) %MON pe_b_mean                    =  -8.2942956178204E-01
(PID.TID 0000.0001) %MON ke_max                       =   3.6809043317656E-03
(PID.TID 0000.0001) %MON ke_mean                      =   4.5499987894865E-06
(PID.TID 0000.0001) %MON ke_vol                       =   4.2724661088903E+12
(PID.TID 0000.0001) // =======================================================
(PID.TID 0000.0001) // End MONITOR dynamic field statistics
(PID.TID 0000.0001) // =======================================================
(PID.TID 0000.0001) // =======================================================
(PID.TID 0000.0001) // Begin OBCS MONITOR field statistics
(PID.TID 0000.0001) // =======================================================
(PID.TID 0000.0001) %MON obc_N_vVel_max               =   1.5007264998198E-05
(PID.TID 0000.0001) %MON obc_N_vVel_min               =   1.5007264998198E-05
(PID.TID 0000.0001) %MON obc_N_vVel_mean              =   1.5007264998198E-05
(PID.TID 0000.0001) %MON obc_N_vVel_sd                =  -3.3087224502121E-24
(PID.TID 0000.0001) %MON obc_N_vVel_Int               =   9.9047948988106E+02
(PID.TID 0000.0001) // =======================================================
(PID.TID 0000.0001) // End OBCS MONITOR field statistics
(PID.TID 0000.0001) // =======================================================
 cg2d: Sum(rhs),rhsMax =   4.50748384073080E+00  2.99982848545762E+02
(PID.TID 0000.0001)      cg2d_init_res =   1.48568445767449E-05
(PID.TID 0000.0001)      cg2d_iters(min,last) =      -1      86
(PID.TID 0000.0001)      cg2d_last_res =   9.20555984646277E-12
(PID.TID 0000.0001) // =======================================================
(PID.TID 0000.0001) // Begin MONITOR dynamic field statistics
(PID.TID 0000.0001) // =======================================================
(PID.TID 0000.0001) %MON time_tsnumber                =                  1677
(PID.TID 0000.0001) %MON time_secondsf                =   1.6770000000000E+05
(PID.TID 0000.0001) %MON dynstat_eta_max              =   5.8160994389020E+00
(PID.TID 0000.0001) %MON dynstat_eta_min              =  -1.4200049856884E+01
(PID.TID 0000.0001) %MON dynstat_eta_mean             =  -2.5040145228082E+00
(PID.TID 0000.0001) %MON dynstat_eta_sd               =   4.9502472816760E+00
(PID.TID 0000.0001) %MON dynstat_eta_del2             =   2.0718289636668E-01
(PID.TID 0000.0001) %MON dynstat_uvel_max             =   2.0906274624828E-02
(PID.TID 0000.0001) %MON dynstat_uvel_min             =  -9.1114280020772E-02
(PID.TID 0000.0001) %MON dynstat_uvel_mean            =  -9.9592084380705E-08
(PID.TID 0000.0001) %MON dynstat_uvel_sd              =   2.7165008725697E-03
(PID.TID 0000.0001) %MON dynstat_uvel_del2            =   4.4831495460543E-06
(PID.TID 0000.0001) %MON dynstat_vvel_max             =   4.7474851864122E-02
(PID.TID 0000.0001) %MON dynstat_vvel_min             =  -3.3027483900227E-02
(PID.TID 0000.0001) %MON dynstat_vvel_mean            =   1.5350936630741E-05
(PID.TID 0000.0001) %MON dynstat_vvel_sd              =   1.3785975117897E-03
(PID.TID 0000.0001) %MON dynstat_vvel_del2            =   2.8719701193328E-06
(PID.TID 0000.0001) %MON dynstat_wvel_max             =   2.7221920819746E-03
(PID.TID 0000.0001) %MON dynstat_wvel_min             =  -2.6437604818798E-03
(PID.TID 0000.0001) %MON dynstat_wvel_mean            =   7.7135695681751E-09
(PID.TID 0000.0001) %MON dynstat_wvel_sd              =   4.9737865489578E-05
(PID.TID 0000.0001) %MON dynstat_wvel_del2            =   1.8977533652209E-07
(PID.TID 0000.0001) %MON dynstat_theta_max            =   1.2000000000000E+00
(PID.TID 0000.0001) %MON dynstat_theta_min            =  -1.0000000000000E+00
(PID.TID 0000.0001) %MON dynstat_theta_mean           =   5.6779013401825E-01
(PID.TID 0000.0001) %MON dynstat_theta_sd             =   8.6789595856517E-01
(PID.TID 0000.0001) %MON dynstat_theta_del2           =   8.8042021240474E-06
(PID.TID 0000.0001) %MON dynstat_salt_max             =   3.4700000000000E+01
(PID.TID 0000.0001) %MON dynstat_salt_min             =   3.4000000000000E+01
(PID.TID 0000.0001) %MON dynstat_salt_mean            =   3.4498729960194E+01
(PID.TID 0000.0001) %MON dynstat_salt_sd              =   2.7610492353501E-01
(PID.TID 0000.0001) %MON dynstat_salt_del2            =   3.4929331274750E-06
(PID.TID 0000.0001) %MON advcfl_uvel_max              =   9.1114280020772E-03
(PID.TID 0000.0001) %MON advcfl_vvel_max              =   4.7474851864122E-03
(PID.TID 0000.0001) %MON advcfl_wvel_max              =   1.3610960409873E-02
(PID.TID 0000.0001) %MON advcfl_W_hf_max              =   1.3610960409873E-02
(PID.TID 0000.0001) %MON pe_b_mean                    =  -8.2942735495486E-01
(PID.TID 0000.0001) %MON ke_max                       =   3.6936404407272E-03
(PID.TID 0000.0001) %MON ke_mean                      =   4.5668898735023E-06
(PID.TID 0000.0001) %MON ke_vol                       =   4.2724661312223E+12
(PID.TID 0000.0001) // =======================================================
(PID.TID 0000.0001) // End MONITOR dynamic field statistics
(PID.TID 0000.0001) // =======================================================
(PID.TID 0000.0001) // =======================================================
(PID.TID 0000.0001) // Begin OBCS MONITOR field statistics
(PID.TID 0000.0001) // =======================================================
(PID.TID 0000.0001) %MON obc_N_vVel_max               =   1.5007754817350E-05
(PID.TID 0000.0001) %MON obc_N_vVel_min               =   1.5007754817350E-05
(PID.TID 0000.0001) %MON obc_N_vVel_mean              =   1.5007754817350E-05
(PID.TID 0000.0001) %MON obc_N_vVel_sd                =  -8.1942579431034E-24
(PID.TID 0000.0001) %MON obc_N_vVel_Int               =   9.9051181794509E+02
(PID.TID 0000.0001) // =======================================================
(PID.TID 0000.0001) // End OBCS MONITOR field statistics
(PID.TID 0000.0001) // =======================================================
 cg2d: Sum(rhs),rhsMax =   4.50747566566689E+00  2.99982935002799E+02
(PID.TID 0000.0001)      cg2d_init_res =   1.48767070179581E-05
(PID.TID 0000.0001)      cg2d_iters(min,last) =      -1      86
(PID.TID 0000.0001)      cg2d_last_res =   9.21966637730725E-12
(PID.TID 0000.0001) // =======================================================
(PID.TID 0000.0001) // Begin MONITOR dynamic field statistics
(PID.TID 0000.0001) // =======================================================
(PID.TID 0000.0001) %MON time_tsnumber                =                  1678
(PID.TID 0000.0001) %MON time_secondsf                =   1.6780000000000E+05
(PID.TID 0000.0001) %MON dynstat_eta_max              =   5.8162338427319E+00
(PID.TID 0000.0001) %MON dynstat_eta_min              =  -1.4200079584171E+01
(PID.TID 0000.0001) %MON dynstat_eta_mean             =  -2.5040107030379E+00
(PID.TID 0000.0001) %MON dynstat_eta_sd               =   4.9502468501972E+00
(PID.TID 0000.0001) %MON dynstat_eta_del2             =   2.0718297148131E-01
(PID.TID 0000.0001) %MON dynstat_uvel_max             =   2.0946464132537E-02
(PID.TID 0000.0001) %MON dynstat_uvel_min             =  -9.1289910366005E-02
(PID.TID 0000.0001) %MON dynstat_uvel_mean            =  -9.9597799644467E-08
(PID.TID 0000.0001) %MON dynstat_uvel_sd              =   2.7215734704183E-03
(PID.TID 0000.0001) %MON dynstat_uvel_del2            =   4.4933570412000E-06
(PID.TID 0000.0001) %MON dynstat_vvel_max             =   4.7510628487783E-02
(PID.TID 0000.0001) %MON dynstat_vvel_min             =  -3.3086366002482E-02
(PID.TID 0000.0001) %MON dynstat_vvel_mean            =   1.5352498835929E-05
(PID.TID 0000.0001) %MON dynstat_vvel_sd              =   1.3810775907950E-03
(PID.TID 0000.0001) %MON dynstat_vvel_del2            =   2.8772265537819E-06
(PID.TID 0000.0001) %MON dynstat_wvel_max             =   2.7245346321114E-03
(PID.TID 0000.0001) %MON dynstat_wvel_min             =  -2.6446686356843E-03
(PID.TID 0000.0001) %MON dynstat_wvel_mean            =   7.7204390516934E-09
(PID.TID 0000.0001) %MON dynstat_wvel_sd              =   4.9810899060149E-05
(PID.TID 0000.0001) %MON dynstat_wvel_del2            =   1.9002913344258E-07
(PID.TID 0000.0001) %MON dynstat_theta_max            =   1.2000000000000E+00
(PID.TID 0000.0001) %MON dynstat_theta_min            =  -1.0000000000000E+00
(PID.TID 0000.0001) %MON dynstat_theta_mean           =   5.6778768474536E-01
(PID.TID 0000.0001) %MON dynstat_theta_sd             =   8.6789477496943E-01
(PID.TID 0000.0001) %MON dynstat_theta_del2           =   8.8185443276111E-06
(PID.TID 0000.0001) %MON dynstat_salt_max             =   3.4700000000000E+01
(PID.TID 0000.0001) %MON dynstat_salt_min             =   3.4000000000000E+01
(PID.TID 0000.0001) %MON dynstat_salt_mean            =   3.4498728979794E+01
(PID.TID 0000.0001) %MON dynstat_salt_sd              =   2.7610448015874E-01
(PID.TID 0000.0001) %MON dynstat_salt_del2            =   3.4986474058843E-06
(PID.TID 0000.0001) %MON advcfl_uvel_max              =   9.1289910366005E-03
(PID.TID 0000.0001) %MON advcfl_vvel_max              =   4.7510628487783E-03
(PID.TID 0000.0001) %MON advcfl_wvel_max              =   1.3622673160557E-02
(PID.TID 0000.0001) %MON advcfl_W_hf_max              =   1.3622673160557E-02
(PID.TID 0000.0001) %MON pe_b_mean                    =  -8.2942513779293E-01
(PID.TID 0000.0001) %MON ke_max                       =   3.7064017560308E-03
(PID.TID 0000.0001) %MON ke_mean                      =   4.5838310371681E-06
(PID.TID 0000.0001) %MON ke_vol                       =   4.2724661537345E+12
(PID.TID 0000.0001) // =======================================================
(PID.TID 0000.0001) // End MONITOR dynamic field statistics
(PID.TID 0000.0001) // =======================================================
(PID.TID 0000.0001) // =======================================================
(PID.TID 0000.0001) // Begin OBCS MONITOR field statistics
(PID.TID 0000.0001) // =======================================================
(PID.TID 0000.0001) %MON obc_N_vVel_max               =   1.5008714146265E-05
(PID.TID 0000.0001) %MON obc_N_vVel_min               =   1.5008714146265E-05
(PID.TID 0000.0001) %MON obc_N_vVel_mean              =   1.5008714146265E-05
(PID.TID 0000.0001) %MON obc_N_vVel_sd                =  -1.3674329501267E-23
(PID.TID 0000.0001) %MON obc_N_vVel_Int               =   9.9057513365348E+02
(PID.TID 0000.0001) // =======================================================
(PID.TID 0000.0001) // End OBCS MONITOR field statistics
(PID.TID 0000.0001) // =======================================================
 cg2d: Sum(rhs),rhsMax =   4.50746743616142E+00  2.99983021567415E+02
(PID.TID 0000.0001)      cg2d_init_res =   1.48965843818366E-05
(PID.TID 0000.0001)      cg2d_iters(min,last) =      -1      86
(PID.TID 0000.0001)      cg2d_last_res =   9.23396689069763E-12
(PID.TID 0000.0001) // =======================================================
(PID.TID 0000.0001) // Begin MONITOR dynamic field statistics
(PID.TID 0000.0001) // =======================================================
(PID.TID 0000.0001) %MON time_tsnumber                =                  1679
(PID.TID 0000.0001) %MON time_secondsf                =   1.6790000000000E+05
(PID.TID 0000.0001) %MON dynstat_eta_max              =   5.8163685153354E+00
(PID.TID 0000.0001) %MON dynstat_eta_min              =  -1.4200109311573E+01
(PID.TID 0000.0001) %MON dynstat_eta_mean             =  -2.5040068539193E+00
(PID.TID 0000.0001) %MON dynstat_eta_sd               =   4.9502464103997E+00
(PID.TID 0000.0001) %MON dynstat_eta_del2             =   2.0718304668332E-01
(PID.TID 0000.0001) %MON dynstat_uvel_max             =   2.0986705695714E-02
(PID.TID 0000.0001) %MON dynstat_uvel_min             =  -9.1465614632545E-02
(PID.TID 0000.0001) %MON dynstat_uvel_mean            =  -9.9602731538558E-08
(PID.TID 0000.0001) %MON dynstat_uvel_sd              =   2.7266512702297E-03
(PID.TID 0000.0001) %MON dynstat_uvel_del2            =   4.5035823082759E-06
(PID.TID 0000.0001) %MON dynstat_vvel_max             =   4.7546332486739E-02
(PID.TID 0000.0001) %MON dynstat_vvel_min             =  -3.3145208331279E-02
(PID.TID 0000.0001) %MON dynstat_vvel_mean            =   1.5354578857466E-05
(PID.TID 0000.0001) %MON dynstat_vvel_sd              =   1.3835612345426E-03
(PID.TID 0000.0001) %MON dynstat_vvel_del2            =   2.8824905576556E-06
(PID.TID 0000.0001) %MON dynstat_wvel_max             =   2.7268726476366E-03
(PID.TID 0000.0001) %MON dynstat_wvel_min             =  -2.6455469930670E-03
(PID.TID 0000.0001) %MON dynstat_wvel_mean            =   7.7278128550797E-09
(PID.TID 0000.0001) %MON dynstat_wvel_sd              =   4.9883503199648E-05
(PID.TID 0000.0001) %MON dynstat_wvel_del2            =   1.9028098708056E-07
(PID.TID 0000.0001) %MON dynstat_theta_max            =   1.2000000000000E+00
(PID.TID 0000.0001) %MON dynstat_theta_min            =  -1.0000000000000E+00
(PID.TID 0000.0001) %MON dynstat_theta_mean           =   5.6778523179471E-01
(PID.TID 0000.0001) %MON dynstat_theta_sd             =   8.6789359000898E-01
(PID.TID 0000.0001) %MON dynstat_theta_del2           =   8.8328998238363E-06
(PID.TID 0000.0001) %MON dynstat_salt_max             =   3.4700000000000E+01
(PID.TID 0000.0001) %MON dynstat_salt_min             =   3.4000000000000E+01
(PID.TID 0000.0001) %MON dynstat_salt_mean            =   3.4498727997920E+01
(PID.TID 0000.0001) %MON dynstat_salt_sd              =   2.7610403632230E-01
(PID.TID 0000.0001) %MON dynstat_salt_del2            =   3.5043672496035E-06
(PID.TID 0000.0001) %MON advcfl_uvel_max              =   9.1465614632545E-03
(PID.TID 0000.0001) %MON advcfl_vvel_max              =   4.7546332486739E-03
(PID.TID 0000.0001) %MON advcfl_wvel_max              =   1.3634363238183E-02
(PID.TID 0000.0001) %MON advcfl_W_hf_max              =   1.3634363238183E-02
(PID.TID 0000.0001) %MON pe_b_mean                    =  -8.2942291041738E-01
(PID.TID 0000.0001) %MON ke_max                       =   3.7191882686472E-03
(PID.TID 0000.0001) %MON ke_mean                      =   4.6008224149965E-06
(PID.TID 0000.0001) %MON ke_vol                       =   4.2724661764240E+12
(PID.TID 0000.0001) // =======================================================
(PID.TID 0000.0001) // End MONITOR dynamic field statistics
(PID.TID 0000.0001) // =======================================================
(PID.TID 0000.0001) // =======================================================
(PID.TID 0000.0001) // Begin OBCS MONITOR field statistics
(PID.TID 0000.0001) // =======================================================
(PID.TID 0000.0001) %MON obc_N_vVel_max               =   1.5010132356852E-05
(PID.TID 0000.0001) %MON obc_N_vVel_min               =   1.5010132356852E-05
(PID.TID 0000.0001) %MON obc_N_vVel_mean              =   1.5010132356852E-05
(PID.TID 0000.0001) %MON obc_N_vVel_sd                =  -4.6528909456108E-25
(PID.TID 0000.0001) %MON obc_N_vVel_Int               =   9.9066873555223E+02
(PID.TID 0000.0001) // =======================================================
(PID.TID 0000.0001) // End OBCS MONITOR field statistics
(PID.TID 0000.0001) // =======================================================
 cg2d: Sum(rhs),rhsMax =   4.50745915303353E+00  2.99983108240586E+02
(PID.TID 0000.0001)      cg2d_init_res =   1.49164702765339E-05
(PID.TID 0000.0001)      cg2d_iters(min,last) =      -1      86
(PID.TID 0000.0001)      cg2d_last_res =   9.24821170442753E-12
(PID.TID 0000.0001) // =======================================================
(PID.TID 0000.0001) // Begin MONITOR dynamic field statistics
(PID.TID 0000.0001) // =======================================================
(PID.TID 0000.0001) %MON time_tsnumber                =                  1680
(PID.TID 0000.0001) %MON time_secondsf                =   1.6800000000000E+05
(PID.TID 0000.0001) %MON dynstat_eta_max              =   5.8165034557273E+00
(PID.TID 0000.0001) %MON dynstat_eta_min              =  -1.4200139039551E+01
(PID.TID 0000.0001) %MON dynstat_eta_mean             =  -2.5040029759157E+00
(PID.TID 0000.0001) %MON dynstat_eta_sd               =   4.9502459624081E+00
(PID.TID 0000.0001) %MON dynstat_eta_del2             =   2.0718312197269E-01
(PID.TID 0000.0001) %MON dynstat_uvel_max             =   2.1026999311262E-02
(PID.TID 0000.0001) %MON dynstat_uvel_min             =  -9.1641391695255E-02
(PID.TID 0000.0001) %MON dynstat_uvel_mean            =  -9.9606263823755E-08
(PID.TID 0000.0001) %MON dynstat_uvel_sd              =   2.7317342644753E-03
(PID.TID 0000.0001) %MON dynstat_uvel_del2            =   4.5138253426833E-06
(PID.TID 0000.0001) %MON dynstat_vvel_max             =   4.7581963782006E-02
(PID.TID 0000.0001) %MON dynstat_vvel_min             =  -3.3204009581242E-02
(PID.TID 0000.0001) %MON dynstat_vvel_mean            =   1.5357144671230E-05
(PID.TID 0000.0001) %MON dynstat_vvel_sd              =   1.3860484838700E-03
(PID.TID 0000.0001) %MON dynstat_vvel_del2            =   2.8877623255471E-06
(PID.TID 0000.0001) %MON dynstat_wvel_max             =   2.7292061273947E-03
(PID.TID 0000.0001) %MON dynstat_wvel_min             =  -2.6463954331979E-03
(PID.TID 0000.0001) %MON dynstat_wvel_mean            =   7.7355647955728E-09
(PID.TID 0000.0001) %MON dynstat_wvel_sd              =   4.9955870206730E-05
(PID.TID 0000.0001) %MON dynstat_wvel_del2            =   1.9053149895978E-07
(PID.TID 0000.0001) %MON dynstat_theta_max            =   1.2000000000000E+00
(PID.TID 0000.0001) %MON dynstat_theta_min            =  -1.0000000000000E+00
(PID.TID 0000.0001) %MON dynstat_theta_mean           =   5.6778277516299E-01
(PID.TID 0000.0001) %MON dynstat_theta_sd             =   8.6789240368452E-01
(PID.TID 0000.0001) %MON dynstat_theta_del2           =   8.8472683424155E-06
(PID.TID 0000.0001) %MON dynstat_salt_max             =   3.4700000000000E+01
(PID.TID 0000.0001) %MON dynstat_salt_min             =   3.4000000000000E+01
(PID.TID 0000.0001) %MON dynstat_salt_mean            =   3.4498727014571E+01
(PID.TID 0000.0001) %MON dynstat_salt_sd              =   2.7610359202611E-01
(PID.TID 0000.0001) %MON dynstat_salt_del2            =   3.5100925879589E-06
(PID.TID 0000.0001) %MON advcfl_uvel_max              =   9.1641391695255E-03
(PID.TID 0000.0001) %MON advcfl_vvel_max              =   4.7581963782006E-03
(PID.TID 0000.0001) %MON advcfl_wvel_max              =   1.3646030636974E-02
(PID.TID 0000.0001) %MON advcfl_W_hf_max              =   1.3646030636974E-02
(PID.TID 0000.0001) %MON pe_b_mean                    =  -8.2942067294041E-01
(PID.TID 0000.0001) %MON ke_max                       =   3.7319999695104E-03
(PID.TID 0000.0001) %MON ke_mean                      =   4.6178641471733E-06
(PID.TID 0000.0001) %MON ke_vol                       =   4.2724661992877E+12
(PID.TID 0000.0001) // =======================================================
(PID.TID 0000.0001) // End MONITOR dynamic field statistics
(PID.TID 0000.0001) // =======================================================
(PID.TID 0000.0001) // =======================================================
(PID.TID 0000.0001) // Begin OBCS MONITOR field statistics
(PID.TID 0000.0001) // =======================================================
(PID.TID 0000.0001) %MON obc_N_vVel_max               =   1.5011988612417E-05
(PID.TID 0000.0001) %MON obc_N_vVel_min               =   1.5011988612417E-05
(PID.TID 0000.0001) %MON obc_N_vVel_mean              =   1.5011988612417E-05
(PID.TID 0000.0001) %MON obc_N_vVel_sd                =  -1.4708305266959E-23
(PID.TID 0000.0001) %MON obc_N_vVel_Int               =   9.9079124841954E+02
(PID.TID 0000.0001) // =======================================================
(PID.TID 0000.0001) // End OBCS MONITOR field statistics
(PID.TID 0000.0001) // =======================================================
 cg2d: Sum(rhs),rhsMax =   4.50745081705429E+00  2.99983195022441E+02
(PID.TID 0000.0001)      cg2d_init_res =   1.49363531684749E-05
(PID.TID 0000.0001)      cg2d_iters(min,last) =      -1      86
(PID.TID 0000.0001)      cg2d_last_res =   9.26223331310366E-12
(PID.TID 0000.0001) // =======================================================
(PID.TID 0000.0001) // Begin MONITOR dynamic field statistics
(PID.TID 0000.0001) // =======================================================
(PID.TID 0000.0001) %MON time_tsnumber                =                  1681
(PID.TID 0000.0001) %MON time_secondsf                =   1.6810000000000E+05
(PID.TID 0000.0001) %MON dynstat_eta_max              =   5.8166386630067E+00
(PID.TID 0000.0001) %MON dynstat_eta_min              =  -1.4200168768524E+01
(PID.TID 0000.0001) %MON dynstat_eta_mean             =  -2.5039990694564E+00
(PID.TID 0000.0001) %MON dynstat_eta_sd               =   4.9502455063266E+00
(PID.TID 0000.0001) %MON dynstat_eta_del2             =   2.0718319734942E-01
(PID.TID 0000.0001) %MON dynstat_uvel_max             =   2.1067344974604E-02
(PID.TID 0000.0001) %MON dynstat_uvel_min             =  -9.1817240423953E-02
(PID.TID 0000.0001) %MON dynstat_uvel_mean            =  -9.9607817058778E-08
(PID.TID 0000.0001) %MON dynstat_uvel_sd              =   2.7368224455974E-03
(PID.TID 0000.0001) %MON dynstat_uvel_del2            =   4.5240861396837E-06
(PID.TID 0000.0001) %MON dynstat_vvel_max             =   4.7617522293874E-02
(PID.TID 0000.0001) %MON dynstat_vvel_min             =  -3.3262768448505E-02
(PID.TID 0000.0001) %MON dynstat_vvel_mean            =   1.5360153721855E-05
(PID.TID 0000.0001) %MON dynstat_vvel_sd              =   1.3885393816692E-03
(PID.TID 0000.0001) %MON dynstat_vvel_del2            =   2.8930420616144E-06
(PID.TID 0000.0001) %MON dynstat_wvel_max             =   2.7315350703064E-03
(PID.TID 0000.0001) %MON dynstat_wvel_min             =  -2.6472138378058E-03
(PID.TID 0000.0001) %MON dynstat_wvel_mean            =   7.7435620216663E-09
(PID.TID 0000.0001) %MON dynstat_wvel_sd              =   5.0028202024649E-05
(PID.TID 0000.0001) %MON dynstat_wvel_del2            =   1.9078132687626E-07
(PID.TID 0000.0001) %MON dynstat_theta_max            =   1.2000000000000E+00
(PID.TID 0000.0001) %MON dynstat_theta_min            =  -1.0000000000000E+00
(PID.TID 0000.0001) %MON dynstat_theta_mean           =   5.6778031484657E-01
(PID.TID 0000.0001) %MON dynstat_theta_sd             =   8.6789121599658E-01
(PID.TID 0000.0001) %MON dynstat_theta_del2           =   8.8616495951430E-06
(PID.TID 0000.0001) %MON dynstat_salt_max             =   3.4700000000000E+01
(PID.TID 0000.0001) %MON dynstat_salt_min             =   3.4000000000000E+01
(PID.TID 0000.0001) %MON dynstat_salt_mean            =   3.4498726029746E+01
(PID.TID 0000.0001) %MON dynstat_salt_sd              =   2.7610314727083E-01
(PID.TID 0000.0001) %MON dynstat_salt_del2            =   3.5158233511782E-06
(PID.TID 0000.0001) %MON advcfl_uvel_max              =   9.1817240423953E-03
(PID.TID 0000.0001) %MON advcfl_vvel_max              =   4.7617522293874E-03
(PID.TID 0000.0001) %MON advcfl_wvel_max              =   1.3657675351532E-02
(PID.TID 0000.0001) %MON advcfl_W_hf_max              =   1.3657675351532E-02
(PID.TID 0000.0001) %MON pe_b_mean                    =  -8.2941842546277E-01
(PID.TID 0000.0001) %MON ke_max                       =   3.7448368495681E-03
(PID.TID 0000.0001) %MON ke_mean                      =   4.6349563768729E-06
(PID.TID 0000.0001) %MON ke_vol                       =   4.2724662223231E+12
(PID.TID 0000.0001) // =======================================================
(PID.TID 0000.0001) // End MONITOR dynamic field statistics
(PID.TID 0000.0001) // =======================================================
(PID.TID 0000.0001) // =======================================================
(PID.TID 0000.0001) // Begin OBCS MONITOR field statistics
(PID.TID 0000.0001) // =======================================================
(PID.TID 0000.0001) %MON obc_N_vVel_max               =   1.5014252489482E-05
(PID.TID 0000.0001) %MON obc_N_vVel_min               =   1.5014252489481E-05
(PID.TID 0000.0001) %MON obc_N_vVel_mean              =   1.5014252489482E-05
(PID.TID 0000.0001) %MON obc_N_vVel_sd                =  -8.2718061255303E-24
(PID.TID 0000.0001) %MON obc_N_vVel_Int               =   9.9094066430579E+02
(PID.TID 0000.0001) // =======================================================
(PID.TID 0000.0001) // End OBCS MONITOR field statistics
(PID.TID 0000.0001) // =======================================================
 cg2d: Sum(rhs),rhsMax =   4.50744242893012E+00  2.99983281912289E+02
(PID.TID 0000.0001)      cg2d_init_res =   1.49562228947705E-05
(PID.TID 0000.0001)      cg2d_iters(min,last) =      -1      86
(PID.TID 0000.0001)      cg2d_last_res =   9.27592614101402E-12
(PID.TID 0000.0001) // =======================================================
(PID.TID 0000.0001) // Begin MONITOR dynamic field statistics
(PID.TID 0000.0001) // =======================================================
(PID.TID 0000.0001) %MON time_tsnumber                =                  1682
(PID.TID 0000.0001) %MON time_secondsf                =   1.6820000000000E+05
(PID.TID 0000.0001) %MON dynstat_eta_max              =   5.8167741363861E+00
(PID.TID 0000.0001) %MON dynstat_eta_min              =  -1.4200198498864E+01
(PID.TID 0000.0001) %MON dynstat_eta_mean             =  -2.5039951349281E+00
(PID.TID 0000.0001) %MON dynstat_eta_sd               =   4.9502450422388E+00
(PID.TID 0000.0001) %MON dynstat_eta_del2             =   2.0718327281346E-01
(PID.TID 0000.0001) %MON dynstat_uvel_max             =   2.1107742679522E-02
(PID.TID 0000.0001) %MON dynstat_uvel_min             =  -9.1993159684042E-02
(PID.TID 0000.0001) %MON dynstat_uvel_mean            =  -9.9606870104578E-08
(PID.TID 0000.0001) %MON dynstat_uvel_sd              =   2.7419158060052E-03
(PID.TID 0000.0001) %MON dynstat_uvel_del2            =   4.5343646942309E-06
(PID.TID 0000.0001) %MON dynstat_vvel_max             =   4.7653007941888E-02
(PID.TID 0000.0001) %MON dynstat_vvel_min             =  -3.3321483626846E-02
(PID.TID 0000.0001) %MON dynstat_vvel_mean            =   1.5363554075516E-05
(PID.TID 0000.0001) %MON dynstat_vvel_sd              =   1.3910339708699E-03
(PID.TID 0000.0001) %MON dynstat_vvel_del2            =   2.8983299697165E-06
(PID.TID 0000.0001) %MON dynstat_wvel_max             =   2.7338594753778E-03
(PID.TID 0000.0001) %MON dynstat_wvel_min             =  -2.6480020913163E-03
(PID.TID 0000.0001) %MON dynstat_wvel_mean            =   7.7516680542464E-09
(PID.TID 0000.0001) %MON dynstat_wvel_sd              =   5.0100700031677E-05
(PID.TID 0000.0001) %MON dynstat_wvel_del2            =   1.9103115483201E-07
(PID.TID 0000.0001) %MON dynstat_theta_max            =   1.2000000000000E+00
(PID.TID 0000.0001) %MON dynstat_theta_min            =  -1.0000000000000E+00
(PID.TID 0000.0001) %MON dynstat_theta_mean           =   5.6777785084165E-01
(PID.TID 0000.0001) %MON dynstat_theta_sd             =   8.6789002694587E-01
(PID.TID 0000.0001) %MON dynstat_theta_del2           =   8.8760433037670E-06
(PID.TID 0000.0001) %MON dynstat_salt_max             =   3.4700000000000E+01
(PID.TID 0000.0001) %MON dynstat_salt_min             =   3.4000000000000E+01
(PID.TID 0000.0001) %MON dynstat_salt_mean            =   3.4498725043442E+01
(PID.TID 0000.0001) %MON dynstat_salt_sd              =   2.7610270205689E-01
(PID.TID 0000.0001) %MON dynstat_salt_del2            =   3.5215593564846E-06
(PID.TID 0000.0001) %MON advcfl_uvel_max              =   9.1993159684042E-03
(PID.TID 0000.0001) %MON advcfl_vvel_max              =   4.7653007941888E-03
(PID.TID 0000.0001) %MON advcfl_wvel_max              =   1.3669297376889E-02
(PID.TID 0000.0001) %MON advcfl_W_hf_max              =   1.3669297376889E-02
(PID.TID 0000.0001) %MON pe_b_mean                    =  -8.2941616807165E-01
(PID.TID 0000.0001) %MON ke_max                       =   3.7576988997857E-03
(PID.TID 0000.0001) %MON ke_mean                      =   4.6520992474849E-06
(PID.TID 0000.0001) %MON ke_vol                       =   4.2724662455274E+12
(PID.TID 0000.0001) // =======================================================
(PID.TID 0000.0001) // End MONITOR dynamic field statistics
(PID.TID 0000.0001) // =======================================================
(PID.TID 0000.0001) // =======================================================
(PID.TID 0000.0001) // Begin OBCS MONITOR field statistics
(PID.TID 0000.0001) // =======================================================
(PID.TID 0000.0001) %MON obc_N_vVel_max               =   1.5016884848376E-05
(PID.TID 0000.0001) %MON obc_N_vVel_min               =   1.5016884848375E-05
(PID.TID 0000.0001) %MON obc_N_vVel_mean              =   1.5016884848376E-05
(PID.TID 0000.0001) %MON obc_N_vVel_sd                =  -7.0310352067007E-24
(PID.TID 0000.0001) %MON obc_N_vVel_Int               =   9.9111439999280E+02
(PID.TID 0000.0001) // =======================================================
(PID.TID 0000.0001) // End OBCS MONITOR field statistics
(PID.TID 0000.0001) // =======================================================
 cg2d: Sum(rhs),rhsMax =   4.50743398928552E+00  2.99983368908662E+02
(PID.TID 0000.0001)      cg2d_init_res =   1.49760644333118E-05
(PID.TID 0000.0001)      cg2d_iters(min,last) =      -1      86
(PID.TID 0000.0001)      cg2d_last_res =   9.28923133180199E-12
(PID.TID 0000.0001) // =======================================================
(PID.TID 0000.0001) // Begin MONITOR dynamic field statistics
(PID.TID 0000.0001) // =======================================================
(PID.TID 0000.0001) %MON time_tsnumber                =                  1683
(PID.TID 0000.0001) %MON time_secondsf                =   1.6830000000000E+05
(PID.TID 0000.0001) %MON dynstat_eta_max              =   5.8169098751914E+00
(PID.TID 0000.0001) %MON dynstat_eta_min              =  -1.4200228230877E+01
(PID.TID 0000.0001) %MON dynstat_eta_mean             =  -2.5039911726653E+00
(PID.TID 0000.0001) %MON dynstat_eta_sd               =   4.9502445702028E+00
(PID.TID 0000.0001) %MON dynstat_eta_del2             =   2.0718334836448E-01
(PID.TID 0000.0001) %MON dynstat_uvel_max             =   2.1148192417892E-02
(PID.TID 0000.0001) %MON dynstat_uvel_min             =  -9.2169148336913E-02
(PID.TID 0000.0001) %MON dynstat_uvel_mean            =  -9.9602969952285E-08
(PID.TID 0000.0001) %MON dynstat_uvel_sd              =   2.7470143380523E-03
(PID.TID 0000.0001) %MON dynstat_uvel_del2            =   4.5446610002691E-06
(PID.TID 0000.0001) %MON dynstat_vvel_max             =   4.7688420645437E-02
(PID.TID 0000.0001) %MON dynstat_vvel_min             =  -3.3380153807510E-02
(PID.TID 0000.0001) %MON dynstat_vvel_mean            =   1.5367285789367E-05
(PID.TID 0000.0001) %MON dynstat_vvel_sd              =   1.3935322925265E-03
(PID.TID 0000.0001) %MON dynstat_vvel_del2            =   2.9036262435362E-06
(PID.TID 0000.0001) %MON dynstat_wvel_max             =   2.7361793416948E-03
(PID.TID 0000.0001) %MON dynstat_wvel_min             =  -2.6487600808751E-03
(PID.TID 0000.0001) %MON dynstat_wvel_mean            =   7.7597466313888E-09
(PID.TID 0000.0001) %MON dynstat_wvel_sd              =   5.0173554994222E-05
(PID.TID 0000.0001) %MON dynstat_wvel_del2            =   1.9128166110444E-07
(PID.TID 0000.0001) %MON dynstat_theta_max            =   1.2000000000000E+00
(PID.TID 0000.0001) %MON dynstat_theta_min            =  -1.0000000000000E+00
(PID.TID 0000.0001) %MON dynstat_theta_mean           =   5.6777538314420E-01
(PID.TID 0000.0001) %MON dynstat_theta_sd             =   8.6788883653273E-01
(PID.TID 0000.0001) %MON dynstat_theta_del2           =   8.8904489014092E-06
(PID.TID 0000.0001) %MON dynstat_salt_max             =   3.4700000000000E+01
(PID.TID 0000.0001) %MON dynstat_salt_min             =   3.4000000000000E+01
(PID.TID 0000.0001) %MON dynstat_salt_mean            =   3.4498724055659E+01
(PID.TID 0000.0001) %MON dynstat_salt_sd              =   2.7610225638451E-01
(PID.TID 0000.0001) %MON dynstat_salt_del2            =   3.5273006393464E-06
(PID.TID 0000.0001) %MON advcfl_uvel_max              =   9.2169148336913E-03
(PID.TID 0000.0001) %MON advcfl_vvel_max              =   4.7688420645437E-03
(PID.TID 0000.0001) %MON advcfl_wvel_max              =   1.3680896708474E-02
(PID.TID 0000.0001) %MON advcfl_W_hf_max              =   1.3680896708474E-02
(PID.TID 0000.0001) %MON pe_b_mean                    =  -8.2941390083866E-01
(PID.TID 0000.0001) %MON ke_max                       =   3.7705861111380E-03
(PID.TID 0000.0001) %MON ke_mean                      =   4.6692928999104E-06
(PID.TID 0000.0001) %MON ke_vol                       =   4.2724662688985E+12
(PID.TID 0000.0001) // =======================================================
(PID.TID 0000.0001) // End MONITOR dynamic field statistics
(PID.TID 0000.0001) // =======================================================
(PID.TID 0000.0001) // =======================================================
(PID.TID 0000.0001) // Begin OBCS MONITOR field statistics
(PID.TID 0000.0001) // =======================================================
(PID.TID 0000.0001) %MON obc_N_vVel_max               =   1.5019838872843E-05
(PID.TID 0000.0001) %MON obc_N_vVel_min               =   1.5019838872843E-05
(PID.TID 0000.0001) %MON obc_N_vVel_mean              =   1.5019838872843E-05
(PID.TID 0000.0001) %MON obc_N_vVel_sd                =  -7.1602821774121E-24
(PID.TID 0000.0001) %MON obc_N_vVel_Int               =   9.9130936560762E+02
(PID.TID 0000.0001) // =======================================================
(PID.TID 0000.0001) // End OBCS MONITOR field statistics
(PID.TID 0000.0001) // =======================================================
 cg2d: Sum(rhs),rhsMax =   4.50742549864882E+00  2.99983456009413E+02
(PID.TID 0000.0001)      cg2d_init_res =   1.49958844794147E-05
(PID.TID 0000.0001)      cg2d_iters(min,last) =      -1      86
(PID.TID 0000.0001)      cg2d_last_res =   9.30208739316185E-12
(PID.TID 0000.0001) // =======================================================
(PID.TID 0000.0001) // Begin MONITOR dynamic field statistics
(PID.TID 0000.0001) // =======================================================
(PID.TID 0000.0001) %MON time_tsnumber                =                  1684
(PID.TID 0000.0001) %MON time_secondsf                =   1.6840000000000E+05
(PID.TID 0000.0001) %MON dynstat_eta_max              =   5.8170458788950E+00
(PID.TID 0000.0001) %MON dynstat_eta_min              =  -1.4200257964819E+01
(PID.TID 0000.0001) %MON dynstat_eta_mean             =  -2.5039871829438E+00
(PID.TID 0000.0001) %MON dynstat_eta_sd               =   4.9502440902585E+00
(PID.TID 0000.0001) %MON dynstat_eta_del2             =   2.0718342400296E-01
(PID.TID 0000.0001) %MON dynstat_uvel_max             =   2.1188694179532E-02
(PID.TID 0000.0001) %MON dynstat_uvel_min             =  -9.2345205239074E-02
(PID.TID 0000.0001) %MON dynstat_uvel_mean            =  -9.9595753171052E-08
(PID.TID 0000.0001) %MON dynstat_uvel_sd              =   2.7521180341190E-03
(PID.TID 0000.0001) %MON dynstat_uvel_del2            =   4.5549750531242E-06
(PID.TID 0000.0001) %MON dynstat_vvel_max             =   4.7723760323972E-02
(PID.TID 0000.0001) %MON dynstat_vvel_min             =  -3.3438777678954E-02
(PID.TID 0000.0001) %MON dynstat_vvel_mean            =   1.5371282452371E-05
(PID.TID 0000.0001) %MON dynstat_vvel_sd              =   1.3960343836684E-03
(PID.TID 0000.0001) %MON dynstat_vvel_del2            =   2.9089310575673E-06
(PID.TID 0000.0001) %MON dynstat_wvel_max             =   2.7384946684249E-03
(PID.TID 0000.0001) %MON dynstat_wvel_min             =  -2.6494876963835E-03
(PID.TID 0000.0001) %MON dynstat_wvel_mean            =   7.7676636578727E-09
(PID.TID 0000.0001) %MON dynstat_wvel_sd              =   5.0246937635807E-05
(PID.TID 0000.0001) %MON dynstat_wvel_del2            =   1.9153348548628E-07
(PID.TID 0000.0001) %MON dynstat_theta_max            =   1.2000000000000E+00
(PID.TID 0000.0001) %MON dynstat_theta_min            =  -1.0000000000000E+00
(PID.TID 0000.0001) %MON dynstat_theta_mean           =   5.6777291174993E-01
(PID.TID 0000.0001) %MON dynstat_theta_sd             =   8.6788764475828E-01
(PID.TID 0000.0001) %MON dynstat_theta_del2           =   8.9048664743287E-06
(PID.TID 0000.0001) %MON dynstat_salt_max             =   3.4700000000000E+01
(PID.TID 0000.0001) %MON dynstat_salt_min             =   3.4000000000000E+01
(PID.TID 0000.0001) %MON dynstat_salt_mean            =   3.4498723066395E+01
(PID.TID 0000.0001) %MON dynstat_salt_sd              =   2.7610181025453E-01
(PID.TID 0000.0001) %MON dynstat_salt_del2            =   3.5330471210098E-06
(PID.TID 0000.0001) %MON advcfl_uvel_max              =   9.2345205239074E-03
(PID.TID 0000.0001) %MON advcfl_vvel_max              =   4.7723760323972E-03
(PID.TID 0000.0001) %MON advcfl_wvel_max              =   1.3692473342125E-02
(PID.TID 0000.0001) %MON advcfl_W_hf_max              =   1.3692473342125E-02
(PID.TID 0000.0001) %MON pe_b_mean                    =  -8.2941162381829E-01
(PID.TID 0000.0001) %MON ke_max                       =   3.7834984745561E-03
(PID.TID 0000.0001) %MON ke_mean                      =   4.6865374697830E-06
(PID.TID 0000.0001) %MON ke_vol                       =   4.2724662924344E+12
(PID.TID 0000.0001) // =======================================================
(PID.TID 0000.0001) // End MONITOR dynamic field statistics
(PID.TID 0000.0001) // =======================================================
(PID.TID 0000.0001) // =======================================================
(PID.TID 0000.0001) // Begin OBCS MONITOR field statistics
(PID.TID 0000.0001) // =======================================================
(PID.TID 0000.0001) %MON obc_N_vVel_max               =   1.5023061326855E-05
(PID.TID 0000.0001) %MON obc_N_vVel_min               =   1.5023061326855E-05
(PID.TID 0000.0001) %MON obc_N_vVel_mean              =   1.5023061326855E-05
(PID.TID 0000.0001) %MON obc_N_vVel_sd                =  -2.5332406259436E-24
(PID.TID 0000.0001) %MON obc_N_vVel_Int               =   9.9152204757241E+02
(PID.TID 0000.0001) // =======================================================
(PID.TID 0000.0001) // End OBCS MONITOR field statistics
(PID.TID 0000.0001) // =======================================================
 cg2d: Sum(rhs),rhsMax =   4.50741695744120E+00  2.99983543211769E+02
(PID.TID 0000.0001)      cg2d_init_res =   1.50156551947201E-05
(PID.TID 0000.0001)      cg2d_iters(min,last) =      -1      86
(PID.TID 0000.0001)      cg2d_last_res =   9.31452238985813E-12
(PID.TID 0000.0001) // =======================================================
(PID.TID 0000.0001) // Begin MONITOR dynamic field statistics
(PID.TID 0000.0001) // =======================================================
(PID.TID 0000.0001) %MON time_tsnumber                =                  1685
(PID.TID 0000.0001) %MON time_secondsf                =   1.6850000000000E+05
(PID.TID 0000.0001) %MON dynstat_eta_max              =   5.8171821471108E+00
(PID.TID 0000.0001) %MON dynstat_eta_min              =  -1.4200287700870E+01
(PID.TID 0000.0001) %MON dynstat_eta_mean             =  -2.5039831659741E+00
(PID.TID 0000.0001) %MON dynstat_eta_sd               =   4.9502436024155E+00
(PID.TID 0000.0001) %MON dynstat_eta_del2             =   2.0718349972851E-01
(PID.TID 0000.0001) %MON dynstat_uvel_max             =   2.1229247952251E-02
(PID.TID 0000.0001) %MON dynstat_uvel_min             =  -9.2521329243676E-02
(PID.TID 0000.0001) %MON dynstat_uvel_mean            =  -9.9584955525601E-08
(PID.TID 0000.0001) %MON dynstat_uvel_sd              =   2.7572268866824E-03
(PID.TID 0000.0001) %MON dynstat_uvel_del2            =   4.5653068471426E-06
(PID.TID 0000.0001) %MON dynstat_vvel_max             =   4.7759026897404E-02
(PID.TID 0000.0001) %MON dynstat_vvel_min             =  -3.3497353965831E-02
(PID.TID 0000.0001) %MON dynstat_vvel_mean            =   1.5375472875975E-05
(PID.TID 0000.0001) %MON dynstat_vvel_sd              =   1.3985402758113E-03
(PID.TID 0000.0001) %MON dynstat_vvel_del2            =   2.9142445566710E-06
(PID.TID 0000.0001) %MON dynstat_wvel_max             =   2.7408054547989E-03
(PID.TID 0000.0001) %MON dynstat_wvel_min             =  -2.6501848306296E-03
(PID.TID 0000.0001) %MON dynstat_wvel_mean            =   7.7752923541008E-09
(PID.TID 0000.0001) %MON dynstat_wvel_sd              =   5.0320990422731E-05
(PID.TID 0000.0001) %MON dynstat_wvel_del2            =   1.9178720126568E-07
(PID.TID 0000.0001) %MON dynstat_theta_max            =   1.2000000000000E+00
(PID.TID 0000.0001) %MON dynstat_theta_min            =  -1.0000000000000E+00
(PID.TID 0000.0001) %MON dynstat_theta_mean           =   5.6777043665434E-01
(PID.TID 0000.0001) %MON dynstat_theta_sd             =   8.6788645162305E-01
(PID.TID 0000.0001) %MON dynstat_theta_del2           =   8.9192961270038E-06
(PID.TID 0000.0001) %MON dynstat_salt_max             =   3.4700000000000E+01
(PID.TID 0000.0001) %MON dynstat_salt_min             =   3.4000000000000E+01
(PID.TID 0000.0001) %MON dynstat_salt_mean            =   3.4498722075648E+01
(PID.TID 0000.0001) %MON dynstat_salt_sd              =   2.7610136366739E-01
(PID.TID 0000.0001) %MON dynstat_salt_del2            =   3.5387987680861E-06
(PID.TID 0000.0001) %MON advcfl_uvel_max              =   9.2521329243676E-03
(PID.TID 0000.0001) %MON advcfl_vvel_max              =   4.7759026897404E-03
(PID.TID 0000.0001) %MON advcfl_wvel_max              =   1.3704027273995E-02
(PID.TID 0000.0001) %MON advcfl_W_hf_max              =   1.3704027273995E-02
(PID.TID 0000.0001) %MON pe_b_mean                    =  -8.2940933704680E-01
(PID.TID 0000.0001) %MON ke_max                       =   3.7964359810239E-03
(PID.TID 0000.0001) %MON ke_mean                      =   4.7038330855513E-06
(PID.TID 0000.0001) %MON ke_vol                       =   4.2724663161333E+12
(PID.TID 0000.0001) // =======================================================
(PID.TID 0000.0001) // End MONITOR dynamic field statistics
(PID.TID 0000.0001) // =======================================================
(PID.TID 0000.0001) // =======================================================
(PID.TID 0000.0001) // Begin OBCS MONITOR field statistics
(PID.TID 0000.0001) // =======================================================
(PID.TID 0000.0001) %MON obc_N_vVel_max               =   1.5026493884113E-05
(PID.TID 0000.0001) %MON obc_N_vVel_min               =   1.5026493884112E-05
(PID.TID 0000.0001) %MON obc_N_vVel_mean              =   1.5026493884113E-05
(PID.TID 0000.0001) %MON obc_N_vVel_sd                =  -1.1761474334738E-23
(PID.TID 0000.0001) %MON obc_N_vVel_Int               =   9.9174859635144E+02
(PID.TID 0000.0001) // =======================================================
(PID.TID 0000.0001) // End OBCS MONITOR field statistics
(PID.TID 0000.0001) // =======================================================
 cg2d: Sum(rhs),rhsMax =   4.50740836596776E+00  2.99983630512441E+02
(PID.TID 0000.0001)      cg2d_init_res =   1.50353767871075E-05
(PID.TID 0000.0001)      cg2d_iters(min,last) =      -1      86
(PID.TID 0000.0001)      cg2d_last_res =   9.32651715186839E-12
(PID.TID 0000.0001) // =======================================================
(PID.TID 0000.0001) // Begin MONITOR dynamic field statistics
(PID.TID 0000.0001) // =======================================================
(PID.TID 0000.0001) %MON time_tsnumber                =                  1686
(PID.TID 0000.0001) %MON time_secondsf                =   1.6860000000000E+05
(PID.TID 0000.0001) %MON dynstat_eta_max              =   5.8173186796094E+00
(PID.TID 0000.0001) %MON dynstat_eta_min              =  -1.4200317439148E+01
(PID.TID 0000.0001) %MON dynstat_eta_mean             =  -2.5039791218984E+00
(PID.TID 0000.0001) %MON dynstat_eta_sd               =   4.9502431066599E+00
(PID.TID 0000.0001) %MON dynstat_eta_del2             =   2.0718357554098E-01
(PID.TID 0000.0001) %MON dynstat_uvel_max             =   2.1269853721805E-02
(PID.TID 0000.0001) %MON dynstat_uvel_min             =  -9.2697519201220E-02
(PID.TID 0000.0001) %MON dynstat_uvel_mean            =  -9.9570414296011E-08
(PID.TID 0000.0001) %MON dynstat_uvel_sd              =   2.7623408881783E-03
(PID.TID 0000.0001) %MON dynstat_uvel_del2            =   4.5756563761202E-06
(PID.TID 0000.0001) %MON dynstat_vvel_max             =   4.7794220286559E-02
(PID.TID 0000.0001) %MON dynstat_vvel_min             =  -3.3555881350114E-02
(PID.TID 0000.0001) %MON dynstat_vvel_mean            =   1.5379782875692E-05
(PID.TID 0000.0001) %MON dynstat_vvel_sd              =   1.4010499936453E-03
(PID.TID 0000.0001) %MON dynstat_vvel_del2            =   2.9195668508309E-06
(PID.TID 0000.0001) %MON dynstat_wvel_max             =   2.7431117001425E-03
(PID.TID 0000.0001) %MON dynstat_wvel_min             =  -2.6508513791484E-03
(PID.TID 0000.0001) %MON dynstat_wvel_mean            =   7.7825147473208E-09
(PID.TID 0000.0001) %MON dynstat_wvel_sd              =   5.0395820717614E-05
(PID.TID 0000.0001) %MON dynstat_wvel_del2            =   1.9204328602638E-07
(PID.TID 0000.0001) %MON dynstat_theta_max            =   1.2000000000000E+00
(PID.TID 0000.0001) %MON dynstat_theta_min            =  -1.0000000000000E+00
(PID.TID 0000.0001) %MON dynstat_theta_mean           =   5.6776795785275E-01
(PID.TID 0000.0001) %MON dynstat_theta_sd             =   8.6788525712788E-01
(PID.TID 0000.0001) %MON dynstat_theta_del2           =   8.9337374411681E-06
(PID.TID 0000.0001) %MON dynstat_salt_max             =   3.4700000000000E+01
(PID.TID 0000.0001) %MON dynstat_salt_min             =   3.4000000000000E+01
(PID.TID 0000.0001) %MON dynstat_salt_mean            =   3.4498721083416E+01
(PID.TID 0000.0001) %MON dynstat_salt_sd              =   2.7610091662357E-01
(PID.TID 0000.0001) %MON dynstat_salt_del2            =   3.5445555765029E-06
(PID.TID 0000.0001) %MON advcfl_uvel_max              =   9.2697519201220E-03
(PID.TID 0000.0001) %MON advcfl_vvel_max              =   4.7794220286559E-03
(PID.TID 0000.0001) %MON advcfl_wvel_max              =   1.3715558500713E-02
(PID.TID 0000.0001) %MON advcfl_W_hf_max              =   1.3715558500713E-02
(PID.TID 0000.0001) %MON pe_b_mean                    =  -8.2940704054166E-01
(PID.TID 0000.0001) %MON ke_max                       =   3.8093986216016E-03
(PID.TID 0000.0001) %MON ke_mean                      =   4.7211798662297E-06
(PID.TID 0000.0001) %MON ke_vol                       =   4.2724663399941E+12
(PID.TID 0000.0001) // =======================================================
(PID.TID 0000.0001) // End MONITOR dynamic field statistics
(PID.TID 0000.0001) // =======================================================
(PID.TID 0000.0001) // =======================================================
(PID.TID 0000.0001) // Begin OBCS MONITOR field statistics
(PID.TID 0000.0001) // =======================================================
(PID.TID 0000.0001) %MON obc_N_vVel_max               =   1.5030074625704E-05
(PID.TID 0000.0001) %MON obc_N_vVel_min               =   1.5030074625703E-05
(PID.TID 0000.0001) %MON obc_N_vVel_mean              =   1.5030074625704E-05
(PID.TID 0000.0001) %MON obc_N_vVel_sd                =  -1.5974925579930E-23
(PID.TID 0000.0001) %MON obc_N_vVel_Int               =   9.9198492529645E+02
(PID.TID 0000.0001) // =======================================================
(PID.TID 0000.0001) // End OBCS MONITOR field statistics
(PID.TID 0000.0001) // =======================================================
 cg2d: Sum(rhs),rhsMax =   4.50739972441205E+00  2.99983717907726E+02
(PID.TID 0000.0001)      cg2d_init_res =   1.50550555645563E-05
(PID.TID 0000.0001)      cg2d_iters(min,last) =      -1      86
(PID.TID 0000.0001)      cg2d_last_res =   9.33807806213617E-12
(PID.TID 0000.0001) // =======================================================
(PID.TID 0000.0001) // Begin MONITOR dynamic field statistics
(PID.TID 0000.0001) // =======================================================
(PID.TID 0000.0001) %MON time_tsnumber                =                  1687
(PID.TID 0000.0001) %MON time_secondsf                =   1.6870000000000E+05
(PID.TID 0000.0001) %MON dynstat_eta_max              =   5.8174554763201E+00
(PID.TID 0000.0001) %MON dynstat_eta_min              =  -1.4200347179715E+01
(PID.TID 0000.0001) %MON dynstat_eta_mean             =  -2.5039750507878E+00
(PID.TID 0000.0001) %MON dynstat_eta_sd               =   4.9502426029556E+00
(PID.TID 0000.0001) %MON dynstat_eta_del2             =   2.0718365144034E-01
(PID.TID 0000.0001) %MON dynstat_uvel_max             =   2.1310511471349E-02
(PID.TID 0000.0001) %MON dynstat_uvel_min             =  -9.2873773959202E-02
(PID.TID 0000.0001) %MON dynstat_uvel_mean            =  -9.9552066431142E-08
(PID.TID 0000.0001) %MON dynstat_uvel_sd              =   2.7674600309765E-03
(PID.TID 0000.0001) %MON dynstat_uvel_del2            =   4.5860236335082E-06
(PID.TID 0000.0001) %MON dynstat_vvel_max             =   4.7829340413519E-02
(PID.TID 0000.0001) %MON dynstat_vvel_min             =  -3.3614358509555E-02
(PID.TID 0000.0001) %MON dynstat_vvel_mean            =   1.5384137101527E-05
(PID.TID 0000.0001) %MON dynstat_vvel_sd              =   1.4035635540805E-03
(PID.TID 0000.0001) %MON dynstat_vvel_del2            =   2.9248980104739E-06
(PID.TID 0000.0001) %MON dynstat_wvel_max             =   2.7454134038437E-03
(PID.TID 0000.0001) %MON dynstat_wvel_min             =  -2.6514872403197E-03
(PID.TID 0000.0001) %MON dynstat_wvel_mean            =   7.7892246925790E-09
(PID.TID 0000.0001) %MON dynstat_wvel_sd              =   5.0471495838966E-05
(PID.TID 0000.0001) %MON dynstat_wvel_del2            =   1.9230209848857E-07
(PID.TID 0000.0001) %MON dynstat_theta_max            =   1.2000000000000E+00
(PID.TID 0000.0001) %MON dynstat_theta_min            =  -1.0000000000000E+00
(PID.TID 0000.0001) %MON dynstat_theta_mean           =   5.6776547534032E-01
(PID.TID 0000.0001) %MON dynstat_theta_sd             =   8.6788406127346E-01
(PID.TID 0000.0001) %MON dynstat_theta_del2           =   8.9481902801606E-06
(PID.TID 0000.0001) %MON dynstat_salt_max             =   3.4700000000000E+01
(PID.TID 0000.0001) %MON dynstat_salt_min             =   3.4000000000000E+01
(PID.TID 0000.0001) %MON dynstat_salt_mean            =   3.4498720089699E+01
(PID.TID 0000.0001) %MON dynstat_salt_sd              =   2.7610046912364E-01
(PID.TID 0000.0001) %MON dynstat_salt_del2            =   3.5503175848187E-06
(PID.TID 0000.0001) %MON advcfl_uvel_max              =   9.2873773959202E-03
(PID.TID 0000.0001) %MON advcfl_vvel_max              =   4.7829340413519E-03
(PID.TID 0000.0001) %MON advcfl_wvel_max              =   1.3727067019218E-02
(PID.TID 0000.0001) %MON advcfl_W_hf_max              =   1.3727067019218E-02
(PID.TID 0000.0001) %MON pe_b_mean                    =  -8.2940473430133E-01
(PID.TID 0000.0001) %MON ke_max                       =   3.8223863874063E-03
(PID.TID 0000.0001) %MON ke_mean                      =   4.7385779199351E-06
(PID.TID 0000.0001) %MON ke_vol                       =   4.2724663640159E+12
(PID.TID 0000.0001) // =======================================================
(PID.TID 0000.0001) // End MONITOR dynamic field statistics
(PID.TID 0000.0001) // =======================================================
(PID.TID 0000.0001) // =======================================================
(PID.TID 0000.0001) // Begin OBCS MONITOR field statistics
(PID.TID 0000.0001) // =======================================================
(PID.TID 0000.0001) %MON obc_N_vVel_max               =   1.5033739578376E-05
(PID.TID 0000.0001) %MON obc_N_vVel_min               =   1.5033739578376E-05
(PID.TID 0000.0001) %MON obc_N_vVel_mean              =   1.5033739578376E-05
(PID.TID 0000.0001) %MON obc_N_vVel_sd                =  -2.0705364707968E-23
(PID.TID 0000.0001) %MON obc_N_vVel_Int               =   9.9222681217284E+02
(PID.TID 0000.0001) // =======================================================
(PID.TID 0000.0001) // End OBCS MONITOR field statistics
(PID.TID 0000.0001) // =======================================================
 cg2d: Sum(rhs),rhsMax =   4.50739103283299E+00  2.99983805393634E+02
(PID.TID 0000.0001)      cg2d_init_res =   1.50746893553771E-05
(PID.TID 0000.0001)      cg2d_iters(min,last) =      -1      86
(PID.TID 0000.0001)      cg2d_last_res =   9.34922035128315E-12
(PID.TID 0000.0001) // =======================================================
(PID.TID 0000.0001) // Begin MONITOR dynamic field statistics
(PID.TID 0000.0001) // =======================================================
(PID.TID 0000.0001) %MON time_tsnumber                =                  1688
(PID.TID 0000.0001) %MON time_secondsf                =   1.6880000000000E+05
(PID.TID 0000.0001) %MON dynstat_eta_max              =   5.8175925373223E+00
(PID.TID 0000.0001) %MON dynstat_eta_min              =  -1.4200376922558E+01
(PID.TID 0000.0001) %MON dynstat_eta_mean             =  -2.5039709526415E+00
(PID.TID 0000.0001) %MON dynstat_eta_sd               =   4.9502420912418E+00
(PID.TID 0000.0001) %MON dynstat_eta_del2             =   2.0718372742643E-01
(PID.TID 0000.0001) %MON dynstat_uvel_max             =   2.1351221181430E-02
(PID.TID 0000.0001) %MON dynstat_uvel_min             =  -9.3050092362171E-02
(PID.TID 0000.0001) %MON dynstat_uvel_mean            =  -9.9529941542332E-08
(PID.TID 0000.0001) %MON dynstat_uvel_sd              =   2.7725843073574E-03
(PID.TID 0000.0001) %MON dynstat_uvel_del2            =   4.5964086122957E-06
(PID.TID 0000.0001) %MON dynstat_vvel_max             =   4.7864387202122E-02
(PID.TID 0000.0001) %MON dynstat_vvel_min             =  -3.3672784118384E-02
(PID.TID 0000.0001) %MON dynstat_vvel_mean            =   1.5388460879804E-05
(PID.TID 0000.0001) %MON dynstat_vvel_sd              =   1.4060809657300E-03
(PID.TID 0000.0001) %MON dynstat_vvel_del2            =   2.9302380632473E-06
(PID.TID 0000.0001) %MON dynstat_wvel_max             =   2.7477105653569E-03
(PID.TID 0000.0001) %MON dynstat_wvel_min             =  -2.6520923162853E-03
(PID.TID 0000.0001) %MON dynstat_wvel_mean            =   7.7953311054393E-09
(PID.TID 0000.0001) %MON dynstat_wvel_sd              =   5.0548040181264E-05
(PID.TID 0000.0001) %MON dynstat_wvel_del2            =   1.9256386010120E-07
(PID.TID 0000.0001) %MON dynstat_theta_max            =   1.2000000000000E+00
(PID.TID 0000.0001) %MON dynstat_theta_min            =  -1.0000000000000E+00
(PID.TID 0000.0001) %MON dynstat_theta_mean           =   5.6776298911205E-01
(PID.TID 0000.0001) %MON dynstat_theta_sd             =   8.6788286405941E-01
(PID.TID 0000.0001) %MON dynstat_theta_del2           =   8.9626546194336E-06
(PID.TID 0000.0001) %MON dynstat_salt_max             =   3.4700000000000E+01
(PID.TID 0000.0001) %MON dynstat_salt_min             =   3.4000000000000E+01
(PID.TID 0000.0001) %MON dynstat_salt_mean            =   3.4498719094493E+01
(PID.TID 0000.0001) %MON dynstat_salt_sd              =   2.7610002116771E-01
(PID.TID 0000.0001) %MON dynstat_salt_del2            =   3.5560847167977E-06
(PID.TID 0000.0001) %MON advcfl_uvel_max              =   9.3050092362171E-03
(PID.TID 0000.0001) %MON advcfl_vvel_max              =   4.7864387202122E-03
(PID.TID 0000.0001) %MON advcfl_wvel_max              =   1.3738552826785E-02
(PID.TID 0000.0001) %MON advcfl_W_hf_max              =   1.3738552826785E-02
(PID.TID 0000.0001) %MON pe_b_mean                    =  -8.2940241830556E-01
(PID.TID 0000.0001) %MON ke_max                       =   3.8353992695870E-03
(PID.TID 0000.0001) %MON ke_mean                      =   4.7560273430235E-06
(PID.TID 0000.0001) %MON ke_vol                       =   4.2724663881983E+12
(PID.TID 0000.0001) // =======================================================
(PID.TID 0000.0001) // End MONITOR dynamic field statistics
(PID.TID 0000.0001) // =======================================================
(PID.TID 0000.0001) // =======================================================
(PID.TID 0000.0001) // Begin OBCS MONITOR field statistics
(PID.TID 0000.0001) // =======================================================
(PID.TID 0000.0001) %MON obc_N_vVel_max               =   1.5037424271338E-05
(PID.TID 0000.0001) %MON obc_N_vVel_min               =   1.5037424271338E-05
(PID.TID 0000.0001) %MON obc_N_vVel_mean              =   1.5037424271338E-05
(PID.TID 0000.0001) %MON obc_N_vVel_sd                =  -1.5070196784950E-23
(PID.TID 0000.0001) %MON obc_N_vVel_Int               =   9.9247000190832E+02
(PID.TID 0000.0001) // =======================================================
(PID.TID 0000.0001) // End OBCS MONITOR field statistics
(PID.TID 0000.0001) // =======================================================
 cg2d: Sum(rhs),rhsMax =   4.50738229116556E+00  2.99983892965999E+02
(PID.TID 0000.0001)      cg2d_init_res =   1.50942608209461E-05
(PID.TID 0000.0001)      cg2d_iters(min,last) =      -1      86
(PID.TID 0000.0001)      cg2d_last_res =   9.35997536445599E-12
(PID.TID 0000.0001) // =======================================================
(PID.TID 0000.0001) // Begin MONITOR dynamic field statistics
(PID.TID 0000.0001) // =======================================================
(PID.TID 0000.0001) %MON time_tsnumber                =                  1689
(PID.TID 0000.0001) %MON time_secondsf                =   1.6890000000000E+05
(PID.TID 0000.0001) %MON dynstat_eta_max              =   5.8177298628471E+00
(PID.TID 0000.0001) %MON dynstat_eta_min              =  -1.4200406667621E+01
(PID.TID 0000.0001) %MON dynstat_eta_mean             =  -2.5039668273886E+00
(PID.TID 0000.0001) %MON dynstat_eta_sd               =   4.9502415714403E+00
(PID.TID 0000.0001) %MON dynstat_eta_del2             =   2.0718380349922E-01
(PID.TID 0000.0001) %MON dynstat_uvel_max             =   2.1391982830055E-02
(PID.TID 0000.0001) %MON dynstat_uvel_min             =  -9.3226473252146E-02
(PID.TID 0000.0001) %MON dynstat_uvel_mean            =  -9.9504160392135E-08
(PID.TID 0000.0001) %MON dynstat_uvel_sd              =   2.7777137095683E-03
(PID.TID 0000.0001) %MON dynstat_uvel_del2            =   4.6068113055504E-06
(PID.TID 0000.0001) %MON dynstat_vvel_max             =   4.7899360578352E-02
(PID.TID 0000.0001) %MON dynstat_vvel_min             =  -3.3731156846757E-02
(PID.TID 0000.0001) %MON dynstat_vvel_mean            =   1.5392682016789E-05
(PID.TID 0000.0001) %MON dynstat_vvel_sd              =   1.4086022287383E-03
(PID.TID 0000.0001) %MON dynstat_vvel_del2            =   2.9355869931608E-06
(PID.TID 0000.0001) %MON dynstat_wvel_max             =   2.7500031842218E-03
(PID.TID 0000.0001) %MON dynstat_wvel_min             =  -2.6528356145730E-03
(PID.TID 0000.0001) %MON dynstat_wvel_mean            =   7.8007585013004E-09
(PID.TID 0000.0001) %MON dynstat_wvel_sd              =   5.0625434548250E-05
(PID.TID 0000.0001) %MON dynstat_wvel_del2            =   1.9282864315731E-07
(PID.TID 0000.0001) %MON dynstat_theta_max            =   1.2000000000000E+00
(PID.TID 0000.0001) %MON dynstat_theta_min            =  -1.0000000000000E+00
(PID.TID 0000.0001) %MON dynstat_theta_mean           =   5.6776049916286E-01
(PID.TID 0000.0001) %MON dynstat_theta_sd             =   8.6788166548451E-01
(PID.TID 0000.0001) %MON dynstat_theta_del2           =   8.9771304512918E-06
(PID.TID 0000.0001) %MON dynstat_salt_max             =   3.4700000000000E+01
(PID.TID 0000.0001) %MON dynstat_salt_min             =   3.4000000000000E+01
(PID.TID 0000.0001) %MON dynstat_salt_mean            =   3.4498718097798E+01
(PID.TID 0000.0001) %MON dynstat_salt_sd              =   2.7609957275564E-01
(PID.TID 0000.0001) %MON dynstat_salt_del2            =   3.5618569676053E-06
(PID.TID 0000.0001) %MON advcfl_uvel_max              =   9.3226473252146E-03
(PID.TID 0000.0001) %MON advcfl_vvel_max              =   4.7899360578352E-03
(PID.TID 0000.0001) %MON advcfl_wvel_max              =   1.3750015921109E-02
(PID.TID 0000.0001) %MON advcfl_W_hf_max              =   1.3750015921109E-02
(PID.TID 0000.0001) %MON pe_b_mean                    =  -8.2940009251616E-01
(PID.TID 0000.0001) %MON ke_max                       =   3.8484372593374E-03
(PID.TID 0000.0001) %MON ke_mean                      =   4.7735282199224E-06
(PID.TID 0000.0001) %MON ke_vol                       =   4.2724664125413E+12
(PID.TID 0000.0001) // =======================================================
(PID.TID 0000.0001) // End MONITOR dynamic field statistics
(PID.TID 0000.0001) // =======================================================
(PID.TID 0000.0001) // =======================================================
(PID.TID 0000.0001) // Begin OBCS MONITOR field statistics
(PID.TID 0000.0001) // =======================================================
(PID.TID 0000.0001) %MON obc_N_vVel_max               =   1.5041065352122E-05
(PID.TID 0000.0001) %MON obc_N_vVel_min               =   1.5041065352122E-05
(PID.TID 0000.0001) %MON obc_N_vVel_mean              =   1.5041065352122E-05
(PID.TID 0000.0001) %MON obc_N_vVel_sd                =  -3.3862706326390E-24
(PID.TID 0000.0001) %MON obc_N_vVel_Int               =   9.9271031324004E+02
(PID.TID 0000.0001) // =======================================================
(PID.TID 0000.0001) // End OBCS MONITOR field statistics
(PID.TID 0000.0001) // =======================================================
 cg2d: Sum(rhs),rhsMax =   4.50737349922387E+00  2.99983980620612E+02
(PID.TID 0000.0001)      cg2d_init_res =   1.51137821786132E-05
(PID.TID 0000.0001)      cg2d_iters(min,last) =      -1      86
(PID.TID 0000.0001)      cg2d_last_res =   9.37037903933948E-12
(PID.TID 0000.0001) // =======================================================
(PID.TID 0000.0001) // Begin MONITOR dynamic field statistics
(PID.TID 0000.0001) // =======================================================
(PID.TID 0000.0001) %MON time_tsnumber                =                  1690
(PID.TID 0000.0001) %MON time_secondsf                =   1.6900000000000E+05
(PID.TID 0000.0001) %MON dynstat_eta_max              =   5.8178674532628E+00
(PID.TID 0000.0001) %MON dynstat_eta_min              =  -1.4200436414775E+01
(PID.TID 0000.0001) %MON dynstat_eta_mean             =  -2.5039626748908E+00
(PID.TID 0000.0001) %MON dynstat_eta_sd               =   4.9502410434533E+00
(PID.TID 0000.0001) %MON dynstat_eta_del2             =   2.0718387965871E-01
(PID.TID 0000.0001) %MON dynstat_uvel_max             =   2.1432796386511E-02
(PID.TID 0000.0001) %MON dynstat_uvel_min             =  -9.3402915468955E-02
(PID.TID 0000.0001) %MON dynstat_uvel_mean            =  -9.9474934835361E-08
(PID.TID 0000.0001) %MON dynstat_uvel_sd              =   2.7828482295434E-03
(PID.TID 0000.0001) %MON dynstat_uvel_del2            =   4.6172317012785E-06
(PID.TID 0000.0001) %MON dynstat_vvel_max             =   4.7934260470726E-02
(PID.TID 0000.0001) %MON dynstat_vvel_min             =  -3.3789475349860E-02
(PID.TID 0000.0001) %MON dynstat_vvel_mean            =   1.5396732516739E-05
(PID.TID 0000.0001) %MON dynstat_vvel_sd              =   1.4111273355057E-03
(PID.TID 0000.0001) %MON dynstat_vvel_del2            =   2.9409447474393E-06
(PID.TID 0000.0001) %MON dynstat_wvel_max             =   2.7522912600327E-03
(PID.TID 0000.0001) %MON dynstat_wvel_min             =  -2.6537600339313E-03
(PID.TID 0000.0001) %MON dynstat_wvel_mean            =   7.8054501378535E-09
(PID.TID 0000.0001) %MON dynstat_wvel_sd              =   5.0703617613475E-05
(PID.TID 0000.0001) %MON dynstat_wvel_del2            =   1.9309636162449E-07
(PID.TID 0000.0001) %MON dynstat_theta_max            =   1.2000000000000E+00
(PID.TID 0000.0001) %MON dynstat_theta_min            =  -1.0000000000000E+00
(PID.TID 0000.0001) %MON dynstat_theta_mean           =   5.6775800548760E-01
(PID.TID 0000.0001) %MON dynstat_theta_sd             =   8.6788046554873E-01
(PID.TID 0000.0001) %MON dynstat_theta_del2           =   8.9916179655002E-06
(PID.TID 0000.0001) %MON dynstat_salt_max             =   3.4700000000000E+01
(PID.TID 0000.0001) %MON dynstat_salt_min             =   3.4000000000000E+01
(PID.TID 0000.0001) %MON dynstat_salt_mean            =   3.4498717099611E+01
(PID.TID 0000.0001) %MON dynstat_salt_sd              =   2.7609912388762E-01
(PID.TID 0000.0001) %MON dynstat_salt_del2            =   3.5676343602844E-06
(PID.TID 0000.0001) %MON advcfl_uvel_max              =   9.3402915468955E-03
(PID.TID 0000.0001) %MON advcfl_vvel_max              =   4.7934260470726E-03
(PID.TID 0000.0001) %MON advcfl_wvel_max              =   1.3761456300163E-02
(PID.TID 0000.0001) %MON advcfl_W_hf_max              =   1.3761456300163E-02
(PID.TID 0000.0001) %MON pe_b_mean                    =  -8.2939775687817E-01
(PID.TID 0000.0001) %MON ke_max                       =   3.8615003478919E-03
(PID.TID 0000.0001) %MON ke_mean                      =   4.7910806233092E-06
(PID.TID 0000.0001) %MON ke_vol                       =   4.2724664370453E+12
(PID.TID 0000.0001) // =======================================================
(PID.TID 0000.0001) // End MONITOR dynamic field statistics
(PID.TID 0000.0001) // =======================================================
(PID.TID 0000.0001) // =======================================================
(PID.TID 0000.0001) // Begin OBCS MONITOR field statistics
(PID.TID 0000.0001) // =======================================================
(PID.TID 0000.0001) %MON obc_N_vVel_max               =   1.5044602048717E-05
(PID.TID 0000.0001) %MON obc_N_vVel_min               =   1.5044602048717E-05
(PID.TID 0000.0001) %MON obc_N_vVel_mean              =   1.5044602048717E-05
(PID.TID 0000.0001) %MON obc_N_vVel_sd                =  -9.5901252267867E-24
(PID.TID 0000.0001) %MON obc_N_vVel_Int               =   9.9294373521534E+02
(PID.TID 0000.0001) // =======================================================
(PID.TID 0000.0001) // End OBCS MONITOR field statistics
(PID.TID 0000.0001) // =======================================================
 cg2d: Sum(rhs),rhsMax =   4.50736465670745E+00  2.99984068353348E+02
(PID.TID 0000.0001)      cg2d_init_res =   1.51332483146585E-05
(PID.TID 0000.0001)      cg2d_iters(min,last) =      -1      86
(PID.TID 0000.0001)      cg2d_last_res =   9.38044028322261E-12
(PID.TID 0000.0001) // =======================================================
(PID.TID 0000.0001) // Begin MONITOR dynamic field statistics
(PID.TID 0000.0001) // =======================================================
(PID.TID 0000.0001) %MON time_tsnumber                =                  1691
(PID.TID 0000.0001) %MON time_secondsf                =   1.6910000000000E+05
(PID.TID 0000.0001) %MON dynstat_eta_max              =   5.8180053090714E+00
(PID.TID 0000.0001) %MON dynstat_eta_min              =  -1.4200466163860E+01
(PID.TID 0000.0001) %MON dynstat_eta_mean             =  -2.5039584949467E+00
(PID.TID 0000.0001) %MON dynstat_eta_sd               =   4.9502405071652E+00
(PID.TID 0000.0001) %MON dynstat_eta_del2             =   2.0718395590467E-01
(PID.TID 0000.0001) %MON dynstat_uvel_max             =   2.1473661820950E-02
(PID.TID 0000.0001) %MON dynstat_uvel_min             =  -9.3579417851757E-02
(PID.TID 0000.0001) %MON dynstat_uvel_mean            =  -9.9442548526221E-08
(PID.TID 0000.0001) %MON dynstat_uvel_sd              =   2.7879878594504E-03
(PID.TID 0000.0001) %MON dynstat_uvel_del2            =   4.6276697918727E-06
(PID.TID 0000.0001) %MON dynstat_vvel_max             =   4.7969086810542E-02
(PID.TID 0000.0001) %MON dynstat_vvel_min             =  -3.3847738303997E-02
(PID.TID 0000.0001) %MON dynstat_vvel_mean            =   1.5400550197830E-05
(PID.TID 0000.0001) %MON dynstat_vvel_sd              =   1.4136562706784E-03
(PID.TID 0000.0001) %MON dynstat_vvel_del2            =   2.9463112283952E-06
(PID.TID 0000.0001) %MON dynstat_wvel_max             =   2.7545747924613E-03
(PID.TID 0000.0001) %MON dynstat_wvel_min             =  -2.6546533554659E-03
(PID.TID 0000.0001) %MON dynstat_wvel_mean            =   7.8093687020603E-09
(PID.TID 0000.0001) %MON dynstat_wvel_sd              =   5.0782489877778E-05
(PID.TID 0000.0001) %MON dynstat_wvel_del2            =   1.9336678216640E-07
(PID.TID 0000.0001) %MON dynstat_theta_max            =   1.2000000000000E+00
(PID.TID 0000.0001) %MON dynstat_theta_min            =  -1.0000000000000E+00
(PID.TID 0000.0001) %MON dynstat_theta_mean           =   5.6775550808110E-01
(PID.TID 0000.0001) %MON dynstat_theta_sd             =   8.6787926425300E-01
(PID.TID 0000.0001) %MON dynstat_theta_del2           =   9.0061172148346E-06
(PID.TID 0000.0001) %MON dynstat_salt_max             =   3.4700000000000E+01
(PID.TID 0000.0001) %MON dynstat_salt_min             =   3.4000000000000E+01
(PID.TID 0000.0001) %MON dynstat_salt_mean            =   3.4498716099930E+01
(PID.TID 0000.0001) %MON dynstat_salt_sd              =   2.7609867456434E-01
(PID.TID 0000.0001) %MON dynstat_salt_del2            =   3.5734169280888E-06
(PID.TID 0000.0001) %MON advcfl_uvel_max              =   9.3579417851757E-03
(PID.TID 0000.0001) %MON advcfl_vvel_max              =   4.7969086810542E-03
(PID.TID 0000.0001) %MON advcfl_wvel_max              =   1.3772873962306E-02
(PID.TID 0000.0001) %MON advcfl_W_hf_max              =   1.3772873962306E-02
(PID.TID 0000.0001) %MON pe_b_mean                    =  -8.2939541132141E-01
(PID.TID 0000.0001) %MON ke_max                       =   3.8745885262554E-03
(PID.TID 0000.0001) %MON ke_mean                      =   4.8086846155094E-06
(PID.TID 0000.0001) %MON ke_vol                       =   4.2724664617111E+12
(PID.TID 0000.0001) // =======================================================
(PID.TID 0000.0001) // End MONITOR dynamic field statistics
(PID.TID 0000.0001) // =======================================================
(PID.TID 0000.0001) // =======================================================
(PID.TID 0000.0001) // Begin OBCS MONITOR field statistics
(PID.TID 0000.0001) // =======================================================
(PID.TID 0000.0001) %MON obc_N_vVel_max               =   1.5047977656940E-05
(PID.TID 0000.0001) %MON obc_N_vVel_min               =   1.5047977656940E-05
(PID.TID 0000.0001) %MON obc_N_vVel_mean              =   1.5047977656940E-05
(PID.TID 0000.0001) %MON obc_N_vVel_sd                =   3.7671364966129E-12
(PID.TID 0000.0001) %MON obc_N_vVel_Int               =   9.9316652535804E+02
(PID.TID 0000.0001) // =======================================================
(PID.TID 0000.0001) // End OBCS MONITOR field statistics
(PID.TID 0000.0001) // =======================================================
 cg2d: Sum(rhs),rhsMax =   4.50735576321046E+00  2.99984156160268E+02
(PID.TID 0000.0001)      cg2d_init_res =   1.51526661330056E-05
(PID.TID 0000.0001)      cg2d_iters(min,last) =      -1      86
(PID.TID 0000.0001)      cg2d_last_res =   9.39020445164746E-12
(PID.TID 0000.0001) // =======================================================
(PID.TID 0000.0001) // Begin MONITOR dynamic field statistics
(PID.TID 0000.0001) // =======================================================
(PID.TID 0000.0001) %MON time_tsnumber                =                  1692
(PID.TID 0000.0001) %MON time_secondsf                =   1.6920000000000E+05
(PID.TID 0000.0001) %MON dynstat_eta_max              =   5.8181434308783E+00
(PID.TID 0000.0001) %MON dynstat_eta_min              =  -1.4200495914673E+01
(PID.TID 0000.0001) %MON dynstat_eta_mean             =  -2.5039542872978E+00
(PID.TID 0000.0001) %MON dynstat_eta_sd               =   4.9502399624493E+00
(PID.TID 0000.0001) %MON dynstat_eta_del2             =   2.0718403223705E-01
(PID.TID 0000.0001) %MON dynstat_uvel_max             =   2.1514579099145E-02
(PID.TID 0000.0001) %MON dynstat_uvel_min             =  -9.3755979238594E-02
(PID.TID 0000.0001) %MON dynstat_uvel_mean            =  -9.9407365821420E-08
(PID.TID 0000.0001) %MON dynstat_uvel_sd              =   2.7931325914199E-03
(PID.TID 0000.0001) %MON dynstat_uvel_del2            =   4.6381255692592E-06
(PID.TID 0000.0001) %MON dynstat_vvel_max             =   4.8003839532212E-02
(PID.TID 0000.0001) %MON dynstat_vvel_min             =  -3.3905944371384E-02
(PID.TID 0000.0001) %MON dynstat_vvel_mean            =   1.5404080137931E-05
(PID.TID 0000.0001) %MON dynstat_vvel_sd              =   1.4161890126645E-03
(PID.TID 0000.0001) %MON dynstat_vvel_del2            =   2.9516863050305E-06
(PID.TID 0000.0001) %MON dynstat_wvel_max             =   2.7568537812435E-03
(PID.TID 0000.0001) %MON dynstat_wvel_min             =  -2.6555154782131E-03
(PID.TID 0000.0001) %MON dynstat_wvel_mean            =   7.8124966482986E-09
(PID.TID 0000.0001) %MON dynstat_wvel_sd              =   5.0861919168608E-05
(PID.TID 0000.0001) %MON dynstat_wvel_del2            =   1.9363953021901E-07
(PID.TID 0000.0001) %MON dynstat_theta_max            =   1.2000000000000E+00
(PID.TID 0000.0001) %MON dynstat_theta_min            =  -1.0000000000000E+00
(PID.TID 0000.0001) %MON dynstat_theta_mean           =   5.6775300693815E-01
(PID.TID 0000.0001) %MON dynstat_theta_sd             =   8.6787806159738E-01
(PID.TID 0000.0001) %MON dynstat_theta_del2           =   9.0206283534599E-06
(PID.TID 0000.0001) %MON dynstat_salt_max             =   3.4700000000000E+01
(PID.TID 0000.0001) %MON dynstat_salt_min             =   3.4000000000000E+01
(PID.TID 0000.0001) %MON dynstat_salt_mean            =   3.4498715098754E+01
(PID.TID 0000.0001) %MON dynstat_salt_sd              =   2.7609822478601E-01
(PID.TID 0000.0001) %MON dynstat_salt_del2            =   3.5792047202880E-06
(PID.TID 0000.0001) %MON advcfl_uvel_max              =   9.3755979238594E-03
(PID.TID 0000.0001) %MON advcfl_vvel_max              =   4.8003839532212E-03
(PID.TID 0000.0001) %MON advcfl_wvel_max              =   1.3784268906217E-02
(PID.TID 0000.0001) %MON advcfl_W_hf_max              =   1.3784268906217E-02
(PID.TID 0000.0001) %MON pe_b_mean                    =  -8.2939305576245E-01
(PID.TID 0000.0001) %MON ke_max                       =   3.8877017857354E-03
(PID.TID 0000.0001) %MON ke_mean                      =   4.8263402498308E-06
(PID.TID 0000.0001) %MON ke_vol                       =   4.2724664865400E+12
(PID.TID 0000.0001) // =======================================================
(PID.TID 0000.0001) // End MONITOR dynamic field statistics
(PID.TID 0000.0001) // =======================================================
(PID.TID 0000.0001) // =======================================================
(PID.TID 0000.0001) // Begin OBCS MONITOR field statistics
(PID.TID 0000.0001) // =======================================================
(PID.TID 0000.0001) %MON obc_N_vVel_max               =   1.5051140866115E-05
(PID.TID 0000.0001) %MON obc_N_vVel_min               =   1.5051140866115E-05
(PID.TID 0000.0001) %MON obc_N_vVel_mean              =   1.5051140866115E-05
(PID.TID 0000.0001) %MON obc_N_vVel_sd                =   4.2870641743695E-12
(PID.TID 0000.0001) %MON obc_N_vVel_Int               =   9.9337529716360E+02
(PID.TID 0000.0001) // =======================================================
(PID.TID 0000.0001) // End OBCS MONITOR field statistics
(PID.TID 0000.0001) // =======================================================
 cg2d: Sum(rhs),rhsMax =   4.50128589384407E+00  2.99984244037762E+02
(PID.TID 0000.0001)      cg2d_init_res =   3.97710182421745E-05
(PID.TID 0000.0001)      cg2d_iters(min,last) =      -1      87
(PID.TID 0000.0001)      cg2d_last_res =   9.32070343897174E-12
(PID.TID 0000.0001) // =======================================================
(PID.TID 0000.0001) // Begin MONITOR dynamic field statistics
(PID.TID 0000.0001) // =======================================================
(PID.TID 0000.0001) %MON time_tsnumber                =                  1693
(PID.TID 0000.0001) %MON time_secondsf                =   1.6930000000000E+05
(PID.TID 0000.0001) %MON dynstat_eta_max              =   5.8182818198438E+00
(PID.TID 0000.0001) %MON dynstat_eta_min              =  -1.4194074054922E+01
(PID.TID 0000.0001) %MON dynstat_eta_mean             =  -2.5005830482642E+00
(PID.TID 0000.0001) %MON dynstat_eta_sd               =   4.9490840147990E+00
(PID.TID 0000.0001) %MON dynstat_eta_del2             =   2.0717974677683E-01
(PID.TID 0000.0001) %MON dynstat_uvel_max             =   2.1555548194442E-02
(PID.TID 0000.0001) %MON dynstat_uvel_min             =  -9.3932598474064E-02
(PID.TID 0000.0001) %MON dynstat_uvel_mean            =  -1.0952965583555E-07
(PID.TID 0000.0001) %MON dynstat_uvel_sd              =   2.7982825587008E-03
(PID.TID 0000.0001) %MON dynstat_uvel_del2            =   4.6485993422128E-06
(PID.TID 0000.0001) %MON dynstat_vvel_max             =   4.8038518412419E-02
(PID.TID 0000.0001) %MON dynstat_vvel_min             =  -3.3964092216365E-02
(PID.TID 0000.0001) %MON dynstat_vvel_mean            =   1.5408472284525E-05
(PID.TID 0000.0001) %MON dynstat_vvel_sd              =   1.4187251136943E-03
(PID.TID 0000.0001) %MON dynstat_vvel_del2            =   2.9570834627651E-06
(PID.TID 0000.0001) %MON dynstat_wvel_max             =   2.7591282285486E-03
(PID.TID 0000.0001) %MON dynstat_wvel_min             =  -2.6563463053230E-03
(PID.TID 0000.0001) %MON dynstat_wvel_mean            =   7.9259291890787E-09
(PID.TID 0000.0001) %MON dynstat_wvel_sd              =   5.0941888615314E-05
(PID.TID 0000.0001) %MON dynstat_wvel_del2            =   1.9391503424505E-07
(PID.TID 0000.0001) %MON dynstat_theta_max            =   1.2000000000000E+00
(PID.TID 0000.0001) %MON dynstat_theta_min            =  -1.0000000000000E+00
(PID.TID 0000.0001) %MON dynstat_theta_mean           =   5.6775050206515E-01
(PID.TID 0000.0001) %MON dynstat_theta_sd             =   8.6787685071323E-01
(PID.TID 0000.0001) %MON dynstat_theta_del2           =   9.0398960134584E-06
(PID.TID 0000.0001) %MON dynstat_salt_max             =   3.4700000000000E+01
(PID.TID 0000.0001) %MON dynstat_salt_min             =   3.4000000000000E+01
(PID.TID 0000.0001) %MON dynstat_salt_mean            =   3.4498714096084E+01
(PID.TID 0000.0001) %MON dynstat_salt_sd              =   2.7609777223535E-01
(PID.TID 0000.0001) %MON dynstat_salt_del2            =   3.5862756762330E-06
(PID.TID 0000.0001) %MON advcfl_uvel_max              =   9.3932598474064E-03
(PID.TID 0000.0001) %MON advcfl_vvel_max              =   4.8038518412419E-03
(PID.TID 0000.0001) %MON advcfl_wvel_max              =   1.3795641142743E-02
(PID.TID 0000.0001) %MON advcfl_W_hf_max              =   1.3795641142743E-02
(PID.TID 0000.0001) %MON pe_b_mean                    =  -8.2863172287133E-01
(PID.TID 0000.0001) %MON ke_max                       =   3.9008401165281E-03
(PID.TID 0000.0001) %MON ke_mean                      =   4.8440473814149E-06
(PID.TID 0000.0001) %MON ke_vol                       =   4.2724665115335E+12
(PID.TID 0000.0001) // =======================================================
(PID.TID 0000.0001) // End MONITOR dynamic field statistics
(PID.TID 0000.0001) // =======================================================
(PID.TID 0000.0001) // =======================================================
(PID.TID 0000.0001) // Begin OBCS MONITOR field statistics
(PID.TID 0000.0001) // =======================================================
(PID.TID 0000.0001) %MON obc_N_vVel_max               =   1.5054046946892E-05
(PID.TID 0000.0001) %MON obc_N_vVel_min               =   1.5054046946892E-05
(PID.TID 0000.0001) %MON obc_N_vVel_mean              =   1.5054046946892E-05
(PID.TID 0000.0001) %MON obc_N_vVel_sd                =  -1.0882594933901E-23
(PID.TID 0000.0001) %MON obc_N_vVel_Int               =   9.9356709849488E+02
(PID.TID 0000.0001) // =======================================================
(PID.TID 0000.0001) // End OBCS MONITOR field statistics
(PID.TID 0000.0001) // =======================================================
 cg2d: Sum(rhs),rhsMax =   4.50127693843590E+00  2.99984331983494E+02
(PID.TID 0000.0001)      cg2d_init_res =   1.52129821765071E-05
(PID.TID 0000.0001)      cg2d_iters(min,last) =      -1      86
(PID.TID 0000.0001)      cg2d_last_res =   9.53518274443121E-12
(PID.TID 0000.0001) // =======================================================
(PID.TID 0000.0001) // Begin MONITOR dynamic field statistics
(PID.TID 0000.0001) // =======================================================
(PID.TID 0000.0001) %MON time_tsnumber                =                  1694
(PID.TID 0000.0001) %MON time_secondsf                =   1.6940000000000E+05
(PID.TID 0000.0001) %MON dynstat_eta_max              =   5.8184204762008E+00
(PID.TID 0000.0001) %MON dynstat_eta_min              =  -1.4194096392158E+01
(PID.TID 0000.0001) %MON dynstat_eta_mean             =  -2.5005788063878E+00
(PID.TID 0000.0001) %MON dynstat_eta_sd               =   4.9490834283803E+00
(PID.TID 0000.0001) %MON dynstat_eta_del2             =   2.0717982339238E-01
(PID.TID 0000.0001) %MON dynstat_uvel_max             =   2.1596569024465E-02
(PID.TID 0000.0001) %MON dynstat_uvel_min             =  -9.4109274399727E-02
(PID.TID 0000.0001) %MON dynstat_uvel_mean            =  -1.1006688796807E-07
(PID.TID 0000.0001) %MON dynstat_uvel_sd              =   2.8034374143836E-03
(PID.TID 0000.0001) %MON dynstat_uvel_del2            =   4.6590908210833E-06
(PID.TID 0000.0001) %MON dynstat_vvel_max             =   4.8073122880818E-02
(PID.TID 0000.0001) %MON dynstat_vvel_min             =  -3.4027712854389E-02
(PID.TID 0000.0001) %MON dynstat_vvel_mean            =   1.5415321473133E-05
(PID.TID 0000.0001) %MON dynstat_vvel_sd              =   1.4212654927086E-03
(PID.TID 0000.0001) %MON dynstat_vvel_del2            =   2.9624752805802E-06
(PID.TID 0000.0001) %MON dynstat_wvel_max             =   2.7613981355496E-03
(PID.TID 0000.0001) %MON dynstat_wvel_min             =  -2.6571457337526E-03
(PID.TID 0000.0001) %MON dynstat_wvel_mean            =   7.7190347102516E-09
(PID.TID 0000.0001) %MON dynstat_wvel_sd              =   5.1021937583260E-05
(PID.TID 0000.0001) %MON dynstat_wvel_del2            =   1.9419110769333E-07
(PID.TID 0000.0001) %MON dynstat_theta_max            =   1.2000000000000E+00
(PID.TID 0000.0001) %MON dynstat_theta_min            =  -1.0000000000000E+00
(PID.TID 0000.0001) %MON dynstat_theta_mean           =   5.6774799338668E-01
(PID.TID 0000.0001) %MON dynstat_theta_sd             =   8.6787564536253E-01
(PID.TID 0000.0001) %MON dynstat_theta_del2           =   9.0543829904016E-06
(PID.TID 0000.0001) %MON dynstat_salt_max             =   3.4700000000000E+01
(PID.TID 0000.0001) %MON dynstat_salt_min             =   3.4000000000000E+01
(PID.TID 0000.0001) %MON dynstat_salt_mean            =   3.4498713091896E+01
(PID.TID 0000.0001) %MON dynstat_salt_sd              =   2.7609732155569E-01
(PID.TID 0000.0001) %MON dynstat_salt_del2            =   3.5920612406930E-06
(PID.TID 0000.0001) %MON advcfl_uvel_max              =   9.4109274399727E-03
(PID.TID 0000.0001) %MON advcfl_vvel_max              =   4.8073122880818E-03
(PID.TID 0000.0001) %MON advcfl_wvel_max              =   1.3806990677748E-02
(PID.TID 0000.0001) %MON advcfl_W_hf_max              =   1.3806990677748E-02
(PID.TID 0000.0001) %MON pe_b_mean                    =  -8.2862934760572E-01
(PID.TID 0000.0001) %MON ke_max                       =   3.9140035030635E-03
(PID.TID 0000.0001) %MON ke_mean                      =   4.8618064884846E-06
(PID.TID 0000.0001) %MON ke_vol                       =   4.2724665366933E+12
(PID.TID 0000.0001) // =======================================================
(PID.TID 0000.0001) // End MONITOR dynamic field statistics
(PID.TID 0000.0001) // =======================================================
(PID.TID 0000.0001) // =======================================================
(PID.TID 0000.0001) // Begin OBCS MONITOR field statistics
(PID.TID 0000.0001) // =======================================================
(PID.TID 0000.0001) %MON obc_N_vVel_max               =   1.5076596980462E-05
(PID.TID 0000.0001) %MON obc_N_vVel_min               =   1.5076596980462E-05
(PID.TID 0000.0001) %MON obc_N_vVel_mean              =   1.5076596980462E-05
(PID.TID 0000.0001) %MON obc_N_vVel_sd                =   3.3839742323237E-12
(PID.TID 0000.0001) %MON obc_N_vVel_Int               =   9.9505540071047E+02
(PID.TID 0000.0001) // =======================================================
(PID.TID 0000.0001) // End OBCS MONITOR field statistics
(PID.TID 0000.0001) // =======================================================
 cg2d: Sum(rhs),rhsMax =   4.50126792344309E+00  2.99984419996882E+02
(PID.TID 0000.0001)      cg2d_init_res =   1.52116686695616E-05
(PID.TID 0000.0001)      cg2d_iters(min,last) =      -1      87
(PID.TID 0000.0001)      cg2d_last_res =   8.63350432212929E-12
(PID.TID 0000.0001) // =======================================================
(PID.TID 0000.0001) // Begin MONITOR dynamic field statistics
(PID.TID 0000.0001) // =======================================================
(PID.TID 0000.0001) %MON time_tsnumber                =                  1695
(PID.TID 0000.0001) %MON time_secondsf                =   1.6950000000000E+05
(PID.TID 0000.0001) %MON dynstat_eta_max              =   5.8185594046317E+00
(PID.TID 0000.0001) %MON dynstat_eta_min              =  -1.4194118729918E+01
(PID.TID 0000.0001) %MON dynstat_eta_mean             =  -2.5005745319716E+00
(PID.TID 0000.0001) %MON dynstat_eta_sd               =   4.9490828320584E+00
(PID.TID 0000.0001) %MON dynstat_eta_del2             =   2.0717990000612E-01
(PID.TID 0000.0001) %MON dynstat_uvel_max             =   2.1637641630370E-02
(PID.TID 0000.0001) %MON dynstat_uvel_min             =  -9.4286005947717E-02
(PID.TID 0000.0001) %MON dynstat_uvel_mean            =  -1.0947767818689E-07
(PID.TID 0000.0001) %MON dynstat_uvel_sd              =   2.8085973345504E-03
(PID.TID 0000.0001) %MON dynstat_uvel_del2            =   4.6696000336418E-06
(PID.TID 0000.0001) %MON dynstat_vvel_max             =   4.8107652474975E-02
(PID.TID 0000.0001) %MON dynstat_vvel_min             =  -3.4092555507295E-02
(PID.TID 0000.0001) %MON dynstat_vvel_mean            =   1.5419538611569E-05
(PID.TID 0000.0001) %MON dynstat_vvel_sd              =   1.4238096465808E-03
(PID.TID 0000.0001) %MON dynstat_vvel_del2            =   2.9678754975637E-06
(PID.TID 0000.0001) %MON dynstat_wvel_max             =   2.7636635052277E-03
(PID.TID 0000.0001) %MON dynstat_wvel_min             =  -2.6579136794770E-03
(PID.TID 0000.0001) %MON dynstat_wvel_mean            =   7.6940067164666E-09
(PID.TID 0000.0001) %MON dynstat_wvel_sd              =   5.1102058437709E-05
(PID.TID 0000.0001) %MON dynstat_wvel_del2            =   1.9446789675204E-07
(PID.TID 0000.0001) %MON dynstat_theta_max            =   1.2000000000000E+00
(PID.TID 0000.0001) %MON dynstat_theta_min            =  -1.0000000000000E+00
(PID.TID 0000.0001) %MON dynstat_theta_mean           =   5.6774548101177E-01
(PID.TID 0000.0001) %MON dynstat_theta_sd             =   8.6787443862849E-01
(PID.TID 0000.0001) %MON dynstat_theta_del2           =   9.0688826848689E-06
(PID.TID 0000.0001) %MON dynstat_salt_max             =   3.4700000000000E+01
(PID.TID 0000.0001) %MON dynstat_salt_min             =   3.4000000000000E+01
(PID.TID 0000.0001) %MON dynstat_salt_mean            =   3.4498712086225E+01
(PID.TID 0000.0001) %MON dynstat_salt_sd              =   2.7609687041468E-01
(PID.TID 0000.0001) %MON dynstat_salt_del2            =   3.5978526044901E-06
(PID.TID 0000.0001) %MON advcfl_uvel_max              =   9.4286005947717E-03
(PID.TID 0000.0001) %MON advcfl_vvel_max              =   4.8107652474975E-03
(PID.TID 0000.0001) %MON advcfl_wvel_max              =   1.3818317526139E-02
(PID.TID 0000.0001) %MON advcfl_W_hf_max              =   1.3818317526139E-02
(PID.TID 0000.0001) %MON pe_b_mean                    =  -8.2862696047979E-01
(PID.TID 0000.0001) %MON ke_max                       =   3.9271919328122E-03
(PID.TID 0000.0001) %MON ke_mean                      =   4.8796173727743E-06
(PID.TID 0000.0001) %MON ke_vol                       =   4.2724665618901E+12
(PID.TID 0000.0001) // =======================================================
(PID.TID 0000.0001) // End MONITOR dynamic field statistics
(PID.TID 0000.0001) // =======================================================
(PID.TID 0000.0001) // =======================================================
(PID.TID 0000.0001) // Begin OBCS MONITOR field statistics
(PID.TID 0000.0001) // =======================================================
(PID.TID 0000.0001) %MON obc_N_vVel_max               =   1.5075470086883E-05
(PID.TID 0000.0001) %MON obc_N_vVel_min               =   1.5075470086882E-05
(PID.TID 0000.0001) %MON obc_N_vVel_mean              =   1.5075470086882E-05
(PID.TID 0000.0001) %MON obc_N_vVel_sd                =   5.1524099006313E-12
(PID.TID 0000.0001) %MON obc_N_vVel_Int               =   9.9498102573424E+02
(PID.TID 0000.0001) // =======================================================
(PID.TID 0000.0001) // End OBCS MONITOR field statistics
(PID.TID 0000.0001) // =======================================================
 cg2d: Sum(rhs),rhsMax =   4.50125883758511E+00  2.99984508075312E+02
(PID.TID 0000.0001)      cg2d_init_res =   1.52300256875709E-05
(PID.TID 0000.0001)      cg2d_iters(min,last) =      -1      87
(PID.TID 0000.0001)      cg2d_last_res =   8.79710152323489E-12
(PID.TID 0000.0001) // =======================================================
(PID.TID 0000.0001) // Begin MONITOR dynamic field statistics
(PID.TID 0000.0001) // =======================================================
(PID.TID 0000.0001) %MON time_tsnumber                =                  1696
(PID.TID 0000.0001) %MON time_secondsf                =   1.6960000000000E+05
(PID.TID 0000.0001) %MON dynstat_eta_max              =   5.8186986071118E+00
(PID.TID 0000.0001) %MON dynstat_eta_min              =  -1.4194141133372E+01
(PID.TID 0000.0001) %MON dynstat_eta_mean             =  -2.5005702187271E+00
(PID.TID 0000.0001) %MON dynstat_eta_sd               =   4.9490822290317E+00
(PID.TID 0000.0001) %MON dynstat_eta_del2             =   2.0717997668538E-01
(PID.TID 0000.0001) %MON dynstat_uvel_max             =   2.1678765890977E-02
(PID.TID 0000.0001) %MON dynstat_uvel_min             =  -9.4462792035905E-02
(PID.TID 0000.0001) %MON dynstat_uvel_mean            =  -1.0805482407217E-07
(PID.TID 0000.0001) %MON dynstat_uvel_sd              =   2.8137623388848E-03
(PID.TID 0000.0001) %MON dynstat_uvel_del2            =   4.6801269560409E-06
(PID.TID 0000.0001) %MON dynstat_vvel_max             =   4.8142107690885E-02
(PID.TID 0000.0001) %MON dynstat_vvel_min             =  -3.4157356912834E-02
(PID.TID 0000.0001) %MON dynstat_vvel_mean            =   1.5420620599226E-05
(PID.TID 0000.0001) %MON dynstat_vvel_sd              =   1.4263574918925E-03
(PID.TID 0000.0001) %MON dynstat_vvel_del2            =   2.9732839288271E-06
(PID.TID 0000.0001) %MON dynstat_wvel_max             =   2.7659243207128E-03
(PID.TID 0000.0001) %MON dynstat_wvel_min             =  -2.6586500338288E-03
(PID.TID 0000.0001) %MON dynstat_wvel_mean            =   7.7614278873171E-09
(PID.TID 0000.0001) %MON dynstat_wvel_sd              =   5.1182057417535E-05
(PID.TID 0000.0001) %MON dynstat_wvel_del2            =   1.9474471627208E-07
(PID.TID 0000.0001) %MON dynstat_theta_max            =   1.2000000000000E+00
(PID.TID 0000.0001) %MON dynstat_theta_min            =  -1.0000000000000E+00
(PID.TID 0000.0001) %MON dynstat_theta_mean           =   5.6774296490145E-01
(PID.TID 0000.0001) %MON dynstat_theta_sd             =   8.6787323052773E-01
(PID.TID 0000.0001) %MON dynstat_theta_del2           =   9.0833968363903E-06
(PID.TID 0000.0001) %MON dynstat_salt_max             =   3.4700000000000E+01
(PID.TID 0000.0001) %MON dynstat_salt_min             =   3.4000000000000E+01
(PID.TID 0000.0001) %MON dynstat_salt_mean            =   3.4498711079058E+01
(PID.TID 0000.0001) %MON dynstat_salt_sd              =   2.7609641881782E-01
(PID.TID 0000.0001) %MON dynstat_salt_del2            =   3.6036497044501E-06
(PID.TID 0000.0001) %MON advcfl_uvel_max              =   9.4462792035905E-03
(PID.TID 0000.0001) %MON advcfl_vvel_max              =   4.8142107690885E-03
(PID.TID 0000.0001) %MON advcfl_wvel_max              =   1.3829621603564E-02
(PID.TID 0000.0001) %MON advcfl_W_hf_max              =   1.3829621603564E-02
(PID.TID 0000.0001) %MON pe_b_mean                    =  -8.2862456272913E-01
(PID.TID 0000.0001) %MON ke_max                       =   3.9404053983789E-03
(PID.TID 0000.0001) %MON ke_mean                      =   4.8974800658147E-06
(PID.TID 0000.0001) %MON ke_vol                       =   4.2724665872801E+12
(PID.TID 0000.0001) // =======================================================
(PID.TID 0000.0001) // End MONITOR dynamic field statistics
(PID.TID 0000.0001) // =======================================================
(PID.TID 0000.0001) // =======================================================
(PID.TID 0000.0001) // Begin OBCS MONITOR field statistics
(PID.TID 0000.0001) // =======================================================
(PID.TID 0000.0001) %MON obc_N_vVel_max               =   1.5068704229795E-05
(PID.TID 0000.0001) %MON obc_N_vVel_min               =   1.5068704229795E-05
(PID.TID 0000.0001) %MON obc_N_vVel_mean              =   1.5068704229795E-05
(PID.TID 0000.0001) %MON obc_N_vVel_sd                =  -9.3057818912216E-24
(PID.TID 0000.0001) %MON obc_N_vVel_Int               =   9.9453447916649E+02
(PID.TID 0000.0001) // =======================================================
(PID.TID 0000.0001) // End OBCS MONITOR field statistics
(PID.TID 0000.0001) // =======================================================
 cg2d: Sum(rhs),rhsMax =   4.50124969181220E+00  2.99984596215238E+02
(PID.TID 0000.0001)      cg2d_init_res =   1.52493064162973E-05
(PID.TID 0000.0001)      cg2d_iters(min,last) =      -1      87
(PID.TID 0000.0001)      cg2d_last_res =   8.73076751490377E-12
(PID.TID 0000.0001) // =======================================================
(PID.TID 0000.0001) // Begin MONITOR dynamic field statistics
(PID.TID 0000.0001) // =======================================================
(PID.TID 0000.0001) %MON time_tsnumber                =                  1697
(PID.TID 0000.0001) %MON time_secondsf                =   1.6970000000000E+05
(PID.TID 0000.0001) %MON dynstat_eta_max              =   5.8188380890933E+00
(PID.TID 0000.0001) %MON dynstat_eta_min              =  -1.4194163601675E+01
(PID.TID 0000.0001) %MON dynstat_eta_mean             =  -2.5005658727079E+00
(PID.TID 0000.0001) %MON dynstat_eta_sd               =   4.9490816184137E+00
(PID.TID 0000.0001) %MON dynstat_eta_del2             =   2.0718005345089E-01
(PID.TID 0000.0001) %MON dynstat_uvel_max             =   2.1719941817040E-02
(PID.TID 0000.0001) %MON dynstat_uvel_min             =  -9.4639631615893E-02
(PID.TID 0000.0001) %MON dynstat_uvel_mean            =  -1.0575395491247E-07
(PID.TID 0000.0001) %MON dynstat_uvel_sd              =   2.8189324482251E-03
(PID.TID 0000.0001) %MON dynstat_uvel_del2            =   4.6906715717639E-06
(PID.TID 0000.0001) %MON dynstat_vvel_max             =   4.8176490140132E-02
(PID.TID 0000.0001) %MON dynstat_vvel_min             =  -3.4222115583207E-02
(PID.TID 0000.0001) %MON dynstat_vvel_mean            =   1.5420404096417E-05
(PID.TID 0000.0001) %MON dynstat_vvel_sd              =   1.4289089389659E-03
(PID.TID 0000.0001) %MON dynstat_vvel_del2            =   2.9787003994871E-06
(PID.TID 0000.0001) %MON dynstat_wvel_max             =   2.7681805729293E-03
(PID.TID 0000.0001) %MON dynstat_wvel_min             =  -2.6593547107493E-03
(PID.TID 0000.0001) %MON dynstat_wvel_mean            =   7.7991592324990E-09
(PID.TID 0000.0001) %MON dynstat_wvel_sd              =   5.1261761531106E-05
(PID.TID 0000.0001) %MON dynstat_wvel_del2            =   1.9502086427315E-07
(PID.TID 0000.0001) %MON dynstat_theta_max            =   1.2000000000000E+00
(PID.TID 0000.0001) %MON dynstat_theta_min            =  -1.0000000000000E+00
(PID.TID 0000.0001) %MON dynstat_theta_mean           =   5.6774044501765E-01
(PID.TID 0000.0001) %MON dynstat_theta_sd             =   8.6787202108492E-01
(PID.TID 0000.0001) %MON dynstat_theta_del2           =   9.0979239064924E-06
(PID.TID 0000.0001) %MON dynstat_salt_max             =   3.4700000000000E+01
(PID.TID 0000.0001) %MON dynstat_salt_min             =   3.4000000000000E+01
(PID.TID 0000.0001) %MON dynstat_salt_mean            =   3.4498710070383E+01
(PID.TID 0000.0001) %MON dynstat_salt_sd              =   2.7609596677339E-01
(PID.TID 0000.0001) %MON dynstat_salt_del2            =   3.6094525887424E-06
(PID.TID 0000.0001) %MON advcfl_uvel_max              =   9.4639631615893E-03
(PID.TID 0000.0001) %MON advcfl_vvel_max              =   4.8176490140132E-03
(PID.TID 0000.0001) %MON advcfl_wvel_max              =   1.3840902864646E-02
(PID.TID 0000.0001) %MON advcfl_W_hf_max              =   1.3840902864646E-02
(PID.TID 0000.0001) %MON pe_b_mean                    =  -8.2862215482740E-01
(PID.TID 0000.0001) %MON ke_max                       =   3.9536438903625E-03
(PID.TID 0000.0001) %MON ke_mean                      =   4.9153946295038E-06
(PID.TID 0000.0001) %MON ke_vol                       =   4.2724666129008E+12
(PID.TID 0000.0001) // =======================================================
(PID.TID 0000.0001) // End MONITOR dynamic field statistics
(PID.TID 0000.0001) // =======================================================
(PID.TID 0000.0001) // =======================================================
(PID.TID 0000.0001) // Begin OBCS MONITOR field statistics
(PID.TID 0000.0001) // =======================================================
(PID.TID 0000.0001) %MON obc_N_vVel_max               =   1.5067407183363E-05
(PID.TID 0000.0001) %MON obc_N_vVel_min               =   1.5067407183363E-05
(PID.TID 0000.0001) %MON obc_N_vVel_mean              =   1.5067407183363E-05
(PID.TID 0000.0001) %MON obc_N_vVel_sd                =   2.6123246455145E-12
(PID.TID 0000.0001) %MON obc_N_vVel_Int               =   9.9444887410199E+02
(PID.TID 0000.0001) // =======================================================
(PID.TID 0000.0001) // End OBCS MONITOR field statistics
(PID.TID 0000.0001) // =======================================================
 cg2d: Sum(rhs),rhsMax =   4.50124049145615E+00  2.99984684413667E+02
(PID.TID 0000.0001)      cg2d_init_res =   1.52686022285769E-05
(PID.TID 0000.0001)      cg2d_iters(min,last) =      -1      86
(PID.TID 0000.0001)      cg2d_last_res =   9.94682006705672E-12
(PID.TID 0000.0001) // =======================================================
(PID.TID 0000.0001) // Begin MONITOR dynamic field statistics
(PID.TID 0000.0001) // =======================================================
(PID.TID 0000.0001) %MON time_tsnumber                =                  1698
(PID.TID 0000.0001) %MON time_secondsf                =   1.6980000000000E+05
(PID.TID 0000.0001) %MON dynstat_eta_max              =   5.8189778516776E+00
(PID.TID 0000.0001) %MON dynstat_eta_min              =  -1.4194186076213E+01
(PID.TID 0000.0001) %MON dynstat_eta_mean             =  -2.5005614968509E+00
(PID.TID 0000.0001) %MON dynstat_eta_sd               =   4.9490809984062E+00
(PID.TID 0000.0001) %MON dynstat_eta_del2             =   2.0718013030323E-01
(PID.TID 0000.0001) %MON dynstat_uvel_max             =   2.1761169322907E-02
(PID.TID 0000.0001) %MON dynstat_uvel_min             =  -9.4816523480592E-02
(PID.TID 0000.0001) %MON dynstat_uvel_mean            =  -1.0281445180582E-07
(PID.TID 0000.0001) %MON dynstat_uvel_sd              =   2.8241076691943E-03
(PID.TID 0000.0001) %MON dynstat_uvel_del2            =   4.7012338619820E-06
(PID.TID 0000.0001) %MON dynstat_vvel_max             =   4.8210801271132E-02
(PID.TID 0000.0001) %MON dynstat_vvel_min             =  -3.4286829872201E-02
(PID.TID 0000.0001) %MON dynstat_vvel_mean            =   1.5420200372210E-05
(PID.TID 0000.0001) %MON dynstat_vvel_sd              =   1.4314639297593E-03
(PID.TID 0000.0001) %MON dynstat_vvel_del2            =   2.9841247566773E-06
(PID.TID 0000.0001) %MON dynstat_wvel_max             =   2.7704322616735E-03
(PID.TID 0000.0001) %MON dynstat_wvel_min             =  -2.6600276251602E-03
(PID.TID 0000.0001) %MON dynstat_wvel_mean            =   7.8058162162288E-09
(PID.TID 0000.0001) %MON dynstat_wvel_sd              =   5.1341022025284E-05
(PID.TID 0000.0001) %MON dynstat_wvel_del2            =   1.9529568088479E-07
(PID.TID 0000.0001) %MON dynstat_theta_max            =   1.2000000000000E+00
(PID.TID 0000.0001) %MON dynstat_theta_min            =  -1.0000000000000E+00
(PID.TID 0000.0001) %MON dynstat_theta_mean           =   5.6773792135731E-01
(PID.TID 0000.0001) %MON dynstat_theta_sd             =   8.6787081030206E-01
(PID.TID 0000.0001) %MON dynstat_theta_del2           =   9.1124642755206E-06
(PID.TID 0000.0001) %MON dynstat_salt_max             =   3.4700000000000E+01
(PID.TID 0000.0001) %MON dynstat_salt_min             =   3.4000000000000E+01
(PID.TID 0000.0001) %MON dynstat_salt_mean            =   3.4498709060198E+01
(PID.TID 0000.0001) %MON dynstat_salt_sd              =   2.7609551428211E-01
(PID.TID 0000.0001) %MON dynstat_salt_del2            =   3.6152609514242E-06
(PID.TID 0000.0001) %MON advcfl_uvel_max              =   9.4816523480592E-03
(PID.TID 0000.0001) %MON advcfl_vvel_max              =   4.8210801271132E-03
(PID.TID 0000.0001) %MON advcfl_wvel_max              =   1.3852161308368E-02
(PID.TID 0000.0001) %MON advcfl_W_hf_max              =   1.3852161308368E-02
(PID.TID 0000.0001) %MON pe_b_mean                    =  -8.2861973653612E-01
(PID.TID 0000.0001) %MON ke_max                       =   3.9669073888190E-03
(PID.TID 0000.0001) %MON ke_mean                      =   4.9333611248554E-06
(PID.TID 0000.0001) %MON ke_vol                       =   4.2724666387161E+12
(PID.TID 0000.0001) // =======================================================
(PID.TID 0000.0001) // End MONITOR dynamic field statistics
(PID.TID 0000.0001) // =======================================================
(PID.TID 0000.0001) // =======================================================
(PID.TID 0000.0001) // Begin OBCS MONITOR field statistics
(PID.TID 0000.0001) // =======================================================
(PID.TID 0000.0001) %MON obc_N_vVel_max               =   1.5068773124602E-05
(PID.TID 0000.0001) %MON obc_N_vVel_min               =   1.5068773124602E-05
(PID.TID 0000.0001) %MON obc_N_vVel_mean              =   1.5068773124602E-05
(PID.TID 0000.0001) %MON obc_N_vVel_sd                =  -9.4608782560753E-24
(PID.TID 0000.0001) %MON obc_N_vVel_Int               =   9.9453902622375E+02
(PID.TID 0000.0001) // =======================================================
(PID.TID 0000.0001) // End OBCS MONITOR field statistics
(PID.TID 0000.0001) // =======================================================
 cg2d: Sum(rhs),rhsMax =   4.50123123514027E+00  2.99984772669234E+02
(PID.TID 0000.0001)      cg2d_init_res =   1.52878122709916E-05
(PID.TID 0000.0001)      cg2d_iters(min,last) =      -1      86
(PID.TID 0000.0001)      cg2d_last_res =   9.48626642598447E-12
(PID.TID 0000.0001) // =======================================================
(PID.TID 0000.0001) // Begin MONITOR dynamic field statistics
(PID.TID 0000.0001) // =======================================================
(PID.TID 0000.0001) %MON time_tsnumber                =                  1699
(PID.TID 0000.0001) %MON time_secondsf                =   1.6990000000000E+05
(PID.TID 0000.0001) %MON dynstat_eta_max              =   5.8191178937117E+00
(PID.TID 0000.0001) %MON dynstat_eta_min              =  -1.4194208501601E+01
(PID.TID 0000.0001) %MON dynstat_eta_mean             =  -2.5005570903800E+00
(PID.TID 0000.0001) %MON dynstat_eta_sd               =   4.9490803681709E+00
(PID.TID 0000.0001) %MON dynstat_eta_del2             =   2.0718020724038E-01
(PID.TID 0000.0001) %MON dynstat_uvel_max             =   2.1802448343768E-02
(PID.TID 0000.0001) %MON dynstat_uvel_min             =  -9.4993466250409E-02
(PID.TID 0000.0001) %MON dynstat_uvel_mean            =  -9.9767556702943E-08
(PID.TID 0000.0001) %MON dynstat_uvel_sd              =   2.8292879790662E-03
(PID.TID 0000.0001) %MON dynstat_uvel_del2            =   4.7118138080026E-06
(PID.TID 0000.0001) %MON dynstat_vvel_max             =   4.8245041000723E-02
(PID.TID 0000.0001) %MON dynstat_vvel_min             =  -3.4351499216971E-02
(PID.TID 0000.0001) %MON dynstat_vvel_mean            =   1.5420425887709E-05
(PID.TID 0000.0001) %MON dynstat_vvel_sd              =   1.4340224700482E-03
(PID.TID 0000.0001) %MON dynstat_vvel_del2            =   2.9895568775357E-06
(PID.TID 0000.0001) %MON dynstat_wvel_max             =   2.7726794076617E-03
(PID.TID 0000.0001) %MON dynstat_wvel_min             =  -2.6606687181574E-03
(PID.TID 0000.0001) %MON dynstat_wvel_mean            =   7.8057619763266E-09
(PID.TID 0000.0001) %MON dynstat_wvel_sd              =   5.1419720577627E-05
(PID.TID 0000.0001) %MON dynstat_wvel_del2            =   1.9556858552704E-07
(PID.TID 0000.0001) %MON dynstat_theta_max            =   1.2000000000000E+00
(PID.TID 0000.0001) %MON dynstat_theta_min            =  -1.0000000000000E+00
(PID.TID 0000.0001) %MON dynstat_theta_mean           =   5.6773539392332E-01
(PID.TID 0000.0001) %MON dynstat_theta_sd             =   8.6786959817638E-01
(PID.TID 0000.0001) %MON dynstat_theta_del2           =   9.1270179004827E-06
(PID.TID 0000.0001) %MON dynstat_salt_max             =   3.4700000000000E+01
(PID.TID 0000.0001) %MON dynstat_salt_min             =   3.4000000000000E+01
(PID.TID 0000.0001) %MON dynstat_salt_mean            =   3.4498708048504E+01
(PID.TID 0000.0001) %MON dynstat_salt_sd              =   2.7609506134354E-01
(PID.TID 0000.0001) %MON dynstat_salt_del2            =   3.6210748456144E-06
(PID.TID 0000.0001) %MON advcfl_uvel_max              =   9.4993466250410E-03
(PID.TID 0000.0001) %MON advcfl_vvel_max              =   4.8245041000723E-03
(PID.TID 0000.0001) %MON advcfl_wvel_max              =   1.3863397038308E-02
(PID.TID 0000.0001) %MON advcfl_W_hf_max              =   1.3863397038308E-02
(PID.TID 0000.0001) %MON pe_b_mean                    =  -8.2861730749419E-01
(PID.TID 0000.0001) %MON ke_max                       =   3.9801958562523E-03
(PID.TID 0000.0001) %MON ke_mean                      =   4.9513796089471E-06
(PID.TID 0000.0001) %MON ke_vol                       =   4.2724666647087E+12
(PID.TID 0000.0001) // =======================================================
(PID.TID 0000.0001) // End MONITOR dynamic field statistics
(PID.TID 0000.0001) // =======================================================
(PID.TID 0000.0001) // =======================================================
(PID.TID 0000.0001) // Begin OBCS MONITOR field statistics
(PID.TID 0000.0001) // =======================================================
(PID.TID 0000.0001) %MON obc_N_vVel_max               =   1.5069459724711E-05
(PID.TID 0000.0001) %MON obc_N_vVel_min               =   1.5069459724711E-05
(PID.TID 0000.0001) %MON obc_N_vVel_mean              =   1.5069459724711E-05
(PID.TID 0000.0001) %MON obc_N_vVel_sd                =  -1.3183191012564E-24
(PID.TID 0000.0001) %MON obc_N_vVel_Int               =   9.9458434183092E+02
(PID.TID 0000.0001) // =======================================================
(PID.TID 0000.0001) // End OBCS MONITOR field statistics
(PID.TID 0000.0001) // =======================================================
 cg2d: Sum(rhs),rhsMax =   4.50122192009169E+00  2.99984860982352E+02
(PID.TID 0000.0001)      cg2d_init_res =   1.53070845403746E-05
(PID.TID 0000.0001)      cg2d_iters(min,last) =      -1      85
(PID.TID 0000.0001)      cg2d_last_res =   9.83719072715697E-12
(PID.TID 0000.0001) // =======================================================
(PID.TID 0000.0001) // Begin MONITOR dynamic field statistics
(PID.TID 0000.0001) // =======================================================
(PID.TID 0000.0001) %MON time_tsnumber                =                  1700
(PID.TID 0000.0001) %MON time_secondsf                =   1.7000000000000E+05
(PID.TID 0000.0001) %MON dynstat_eta_max              =   5.8192582067469E+00
(PID.TID 0000.0001) %MON dynstat_eta_min              =  -1.4194230863011E+01
(PID.TID 0000.0001) %MON dynstat_eta_mean             =  -2.5005526517582E+00
(PID.TID 0000.0001) %MON dynstat_eta_sd               =   4.9490797277516E+00
(PID.TID 0000.0001) %MON dynstat_eta_del2             =   2.0718028426250E-01
(PID.TID 0000.0001) %MON dynstat_uvel_max             =   2.1843778719830E-02
(PID.TID 0000.0001) %MON dynstat_uvel_min             =  -9.5170458392795E-02
(PID.TID 0000.0001) %MON dynstat_uvel_mean            =  -9.7220914871188E-08
(PID.TID 0000.0001) %MON dynstat_uvel_sd              =   2.8344733352112E-03
(PID.TID 0000.0001) %MON dynstat_uvel_del2            =   4.7224113970876E-06
(PID.TID 0000.0001) %MON dynstat_vvel_max             =   4.8279207606164E-02
(PID.TID 0000.0001) %MON dynstat_vvel_min             =  -3.4416121335468E-02
(PID.TID 0000.0001) %MON dynstat_vvel_mean            =   1.5420949704698E-05
(PID.TID 0000.0001) %MON dynstat_vvel_sd              =   1.4365846132576E-03
(PID.TID 0000.0001) %MON dynstat_vvel_del2            =   2.9949966756226E-06
(PID.TID 0000.0001) %MON dynstat_wvel_max             =   2.7749220271661E-03
(PID.TID 0000.0001) %MON dynstat_wvel_min             =  -2.6612779375710E-03
(PID.TID 0000.0001) %MON dynstat_wvel_mean            =   7.8108361545912E-09
(PID.TID 0000.0001) %MON dynstat_wvel_sd              =   5.1497773946859E-05
(PID.TID 0000.0001) %MON dynstat_wvel_del2            =   1.9583911336325E-07
(PID.TID 0000.0001) %MON dynstat_theta_max            =   1.2000000000000E+00
(PID.TID 0000.0001) %MON dynstat_theta_min            =  -1.0000000000000E+00
(PID.TID 0000.0001) %MON dynstat_theta_mean           =   5.6773286271507E-01
(PID.TID 0000.0001) %MON dynstat_theta_sd             =   8.6786838470719E-01
(PID.TID 0000.0001) %MON dynstat_theta_del2           =   9.1415849917940E-06
(PID.TID 0000.0001) %MON dynstat_salt_max             =   3.4700000000000E+01
(PID.TID 0000.0001) %MON dynstat_salt_min             =   3.4000000000000E+01
(PID.TID 0000.0001) %MON dynstat_salt_mean            =   3.4498707035301E+01
(PID.TID 0000.0001) %MON dynstat_salt_sd              =   2.7609460795751E-01
(PID.TID 0000.0001) %MON dynstat_salt_del2            =   3.6268941608576E-06
(PID.TID 0000.0001) %MON advcfl_uvel_max              =   9.5170458392795E-03
(PID.TID 0000.0001) %MON advcfl_vvel_max              =   4.8279207606164E-03
(PID.TID 0000.0001) %MON advcfl_wvel_max              =   1.3874610135831E-02
(PID.TID 0000.0001) %MON advcfl_W_hf_max              =   1.3874610135831E-02
(PID.TID 0000.0001) %MON pe_b_mean                    =  -8.2861486750703E-01
(PID.TID 0000.0001) %MON ke_max                       =   3.9935092445133E-03
(PID.TID 0000.0001) %MON ke_mean                      =   4.9694501429666E-06
(PID.TID 0000.0001) %MON ke_vol                       =   4.2724666908831E+12
(PID.TID 0000.0001) // =======================================================
(PID.TID 0000.0001) // End MONITOR dynamic field statistics
(PID.TID 0000.0001) // =======================================================
(PID.TID 0000.0001) // =======================================================
(PID.TID 0000.0001) // Begin OBCS MONITOR field statistics
(PID.TID 0000.0001) // =======================================================
(PID.TID 0000.0001) %MON obc_N_vVel_max               =   1.5068782252902E-05
(PID.TID 0000.0001) %MON obc_N_vVel_min               =   1.5068782252902E-05
(PID.TID 0000.0001) %MON obc_N_vVel_mean              =   1.5068782252902E-05
(PID.TID 0000.0001) %MON obc_N_vVel_sd                =  -9.7193721974981E-24
(PID.TID 0000.0001) %MON obc_N_vVel_Int               =   9.9453962869155E+02
(PID.TID 0000.0001) // =======================================================
(PID.TID 0000.0001) // End OBCS MONITOR field statistics
(PID.TID 0000.0001) // =======================================================
 cg2d: Sum(rhs),rhsMax =   4.50121254503807E+00  2.99984949354251E+02
(PID.TID 0000.0001)      cg2d_init_res =   1.53263992888687E-05
(PID.TID 0000.0001)      cg2d_iters(min,last) =      -1      85
(PID.TID 0000.0001)      cg2d_last_res =   9.51608036858494E-12
(PID.TID 0000.0001) // =======================================================
(PID.TID 0000.0001) // Begin MONITOR dynamic field statistics
(PID.TID 0000.0001) // =======================================================
(PID.TID 0000.0001) %MON time_tsnumber                =                  1701
(PID.TID 0000.0001) %MON time_secondsf                =   1.7010000000000E+05
(PID.TID 0000.0001) %MON dynstat_eta_max              =   5.8193987796723E+00
(PID.TID 0000.0001) %MON dynstat_eta_min              =  -1.4194253178862E+01
(PID.TID 0000.0001) %MON dynstat_eta_mean             =  -2.5005481802888E+00
(PID.TID 0000.0001) %MON dynstat_eta_sd               =   4.9490790775338E+00
(PID.TID 0000.0001) %MON dynstat_eta_del2             =   2.0718036137096E-01
(PID.TID 0000.0001) %MON dynstat_uvel_max             =   2.1885160302849E-02
(PID.TID 0000.0001) %MON dynstat_uvel_min             =  -9.5347498462369E-02
(PID.TID 0000.0001) %MON dynstat_uvel_mean            =  -9.5611203835666E-08
(PID.TID 0000.0001) %MON dynstat_uvel_sd              =   2.8396636952778E-03
(PID.TID 0000.0001) %MON dynstat_uvel_del2            =   4.7330266047982E-06
(PID.TID 0000.0001) %MON dynstat_vvel_max             =   4.8313298974461E-02
(PID.TID 0000.0001) %MON dynstat_vvel_min             =  -3.4480693961337E-02
(PID.TID 0000.0001) %MON dynstat_vvel_mean            =   1.5421475898776E-05
(PID.TID 0000.0001) %MON dynstat_vvel_sd              =   1.4391504211736E-03
(PID.TID 0000.0001) %MON dynstat_vvel_del2            =   3.0004441041983E-06
(PID.TID 0000.0001) %MON dynstat_wvel_max             =   2.7771601303129E-03
(PID.TID 0000.0001) %MON dynstat_wvel_min             =  -2.6618552341160E-03
(PID.TID 0000.0001) %MON dynstat_wvel_mean            =   7.8206467541962E-09
(PID.TID 0000.0001) %MON dynstat_wvel_sd              =   5.1575137364700E-05
(PID.TID 0000.0001) %MON dynstat_wvel_del2            =   1.9610694180151E-07
(PID.TID 0000.0001) %MON dynstat_theta_max            =   1.2000000000000E+00
(PID.TID 0000.0001) %MON dynstat_theta_min            =  -1.0000000000000E+00
(PID.TID 0000.0001) %MON dynstat_theta_mean           =   5.6773032772925E-01
(PID.TID 0000.0001) %MON dynstat_theta_sd             =   8.6786716989530E-01
(PID.TID 0000.0001) %MON dynstat_theta_del2           =   9.1561655672538E-06
(PID.TID 0000.0001) %MON dynstat_salt_max             =   3.4700000000000E+01
(PID.TID 0000.0001) %MON dynstat_salt_min             =   3.4000000000000E+01
(PID.TID 0000.0001) %MON dynstat_salt_mean            =   3.4498706020587E+01
(PID.TID 0000.0001) %MON dynstat_salt_sd              =   2.7609415412497E-01
(PID.TID 0000.0001) %MON dynstat_salt_del2            =   3.6327190304389E-06
(PID.TID 0000.0001) %MON advcfl_uvel_max              =   9.5347498462369E-03
(PID.TID 0000.0001) %MON advcfl_vvel_max              =   4.8313298974461E-03
(PID.TID 0000.0001) %MON advcfl_wvel_max              =   1.3885800651564E-02
(PID.TID 0000.0001) %MON advcfl_W_hf_max              =   1.3885800651564E-02
(PID.TID 0000.0001) %MON pe_b_mean                    =  -8.2861241655073E-01
(PID.TID 0000.0001) %MON ke_max                       =   4.0068475098051E-03
(PID.TID 0000.0001) %MON ke_mean                      =   4.9875727979662E-06
(PID.TID 0000.0001) %MON ke_vol                       =   4.2724667172486E+12
(PID.TID 0000.0001) // =======================================================
(PID.TID 0000.0001) // End MONITOR dynamic field statistics
(PID.TID 0000.0001) // =======================================================
(PID.TID 0000.0001) // =======================================================
(PID.TID 0000.0001) // Begin OBCS MONITOR field statistics
(PID.TID 0000.0001) // =======================================================
(PID.TID 0000.0001) %MON obc_N_vVel_max               =   1.5067497609736E-05
(PID.TID 0000.0001) %MON obc_N_vVel_min               =   1.5067497609736E-05
(PID.TID 0000.0001) %MON obc_N_vVel_mean              =   1.5067497609736E-05
(PID.TID 0000.0001) %MON obc_N_vVel_sd                =   3.8012907446729E-12
(PID.TID 0000.0001) %MON obc_N_vVel_Int               =   9.9445484224255E+02
(PID.TID 0000.0001) // =======================================================
(PID.TID 0000.0001) // End OBCS MONITOR field statistics
(PID.TID 0000.0001) // =======================================================
 cg2d: Sum(rhs),rhsMax =   4.50120311034063E+00  2.99985037788491E+02
(PID.TID 0000.0001)      cg2d_init_res =   1.53457401995178E-05
(PID.TID 0000.0001)      cg2d_iters(min,last) =      -1      85
(PID.TID 0000.0001)      cg2d_last_res =   9.47330587802241E-12
(PID.TID 0000.0001) // =======================================================
(PID.TID 0000.0001) // Begin MONITOR dynamic field statistics
(PID.TID 0000.0001) // =======================================================
(PID.TID 0000.0001) %MON time_tsnumber                =                  1702
(PID.TID 0000.0001) %MON time_secondsf                =   1.7020000000000E+05
(PID.TID 0000.0001) %MON dynstat_eta_max              =   5.8195396062381E+00
(PID.TID 0000.0001) %MON dynstat_eta_min              =  -1.4194275474704E+01
(PID.TID 0000.0001) %MON dynstat_eta_mean             =  -2.5005436762022E+00
(PID.TID 0000.0001) %MON dynstat_eta_sd               =   4.9490784177996E+00
(PID.TID 0000.0001) %MON dynstat_eta_del2             =   2.0718043856511E-01
(PID.TID 0000.0001) %MON dynstat_uvel_max             =   2.1926593060785E-02
(PID.TID 0000.0001) %MON dynstat_uvel_min             =  -9.5524585234571E-02
(PID.TID 0000.0001) %MON dynstat_uvel_mean            =  -9.5069582505152E-08
(PID.TID 0000.0001) %MON dynstat_uvel_sd              =   2.8448590338426E-03
(PID.TID 0000.0001) %MON dynstat_uvel_del2            =   4.7436594147206E-06
(PID.TID 0000.0001) %MON dynstat_vvel_max             =   4.8347313869384E-02
(PID.TID 0000.0001) %MON dynstat_vvel_min             =  -3.4545215273431E-02
(PID.TID 0000.0001) %MON dynstat_vvel_mean            =   1.5421777793226E-05
(PID.TID 0000.0001) %MON dynstat_vvel_sd              =   1.4417199317077E-03
(PID.TID 0000.0001) %MON dynstat_vvel_del2            =   3.0058991672038E-06
(PID.TID 0000.0001) %MON dynstat_wvel_max             =   2.7793937092545E-03
(PID.TID 0000.0001) %MON dynstat_wvel_min             =  -2.6624005455377E-03
(PID.TID 0000.0001) %MON dynstat_wvel_mean            =   7.8301154628370E-09
(PID.TID 0000.0001) %MON dynstat_wvel_sd              =   5.1651806207732E-05
(PID.TID 0000.0001) %MON dynstat_wvel_del2            =   1.9637191292445E-07
(PID.TID 0000.0001) %MON dynstat_theta_max            =   1.2000000000000E+00
(PID.TID 0000.0001) %MON dynstat_theta_min            =  -1.0000000000000E+00
(PID.TID 0000.0001) %MON dynstat_theta_mean           =   5.6772778896207E-01
(PID.TID 0000.0001) %MON dynstat_theta_sd             =   8.6786595374389E-01
(PID.TID 0000.0001) %MON dynstat_theta_del2           =   9.1707595951873E-06
(PID.TID 0000.0001) %MON dynstat_salt_max             =   3.4700000000000E+01
(PID.TID 0000.0001) %MON dynstat_salt_min             =   3.4000000000000E+01
(PID.TID 0000.0001) %MON dynstat_salt_mean            =   3.4498705004362E+01
(PID.TID 0000.0001) %MON dynstat_salt_sd              =   2.7609369984706E-01
(PID.TID 0000.0001) %MON dynstat_salt_del2            =   3.6385494558063E-06
(PID.TID 0000.0001) %MON advcfl_uvel_max              =   9.5524585234571E-03
(PID.TID 0000.0001) %MON advcfl_vvel_max              =   4.8347313869384E-03
(PID.TID 0000.0001) %MON advcfl_wvel_max              =   1.3896968546272E-02
(PID.TID 0000.0001) %MON advcfl_W_hf_max              =   1.3896968546272E-02
(PID.TID 0000.0001) %MON pe_b_mean                    =  -8.2860995465856E-01
(PID.TID 0000.0001) %MON ke_max                       =   4.0202106293448E-03
(PID.TID 0000.0001) %MON ke_mean                      =   5.0057476586996E-06
(PID.TID 0000.0001) %MON ke_vol                       =   4.2724667438091E+12
(PID.TID 0000.0001) // =======================================================
(PID.TID 0000.0001) // End MONITOR dynamic field statistics
(PID.TID 0000.0001) // =======================================================
(PID.TID 0000.0001) // =======================================================
(PID.TID 0000.0001) // Begin OBCS MONITOR field statistics
(PID.TID 0000.0001) // =======================================================
(PID.TID 0000.0001) %MON obc_N_vVel_max               =   1.5066439631846E-05
(PID.TID 0000.0001) %MON obc_N_vVel_min               =   1.5066439631846E-05
(PID.TID 0000.0001) %MON obc_N_vVel_mean              =   1.5066439631846E-05
(PID.TID 0000.0001) %MON obc_N_vVel_sd                =  -4.7045897338953E-24
(PID.TID 0000.0001) %MON obc_N_vVel_Int               =   9.9438501570184E+02
(PID.TID 0000.0001) // =======================================================
(PID.TID 0000.0001) // End OBCS MONITOR field statistics
(PID.TID 0000.0001) // =======================================================
 cg2d: Sum(rhs),rhsMax =   4.50119361697528E+00  2.99985126289399E+02
(PID.TID 0000.0001)      cg2d_init_res =   1.53651336954817E-05
(PID.TID 0000.0001)      cg2d_iters(min,last) =      -1      85
(PID.TID 0000.0001)      cg2d_last_res =   9.66479104459206E-12
(PID.TID 0000.0001) // =======================================================
(PID.TID 0000.0001) // Begin MONITOR dynamic field statistics
(PID.TID 0000.0001) // =======================================================
(PID.TID 0000.0001) %MON time_tsnumber                =                  1703
(PID.TID 0000.0001) %MON time_secondsf                =   1.7030000000000E+05
(PID.TID 0000.0001) %MON dynstat_eta_max              =   5.8196806853120E+00
(PID.TID 0000.0001) %MON dynstat_eta_min              =  -1.4194297767727E+01
(PID.TID 0000.0001) %MON dynstat_eta_mean             =  -2.5005391400766E+00
(PID.TID 0000.0001) %MON dynstat_eta_sd               =   4.9490777486574E+00
(PID.TID 0000.0001) %MON dynstat_eta_del2             =   2.0718051584504E-01
(PID.TID 0000.0001) %MON dynstat_uvel_max             =   2.1968076998132E-02
(PID.TID 0000.0001) %MON dynstat_uvel_min             =  -9.5701717744323E-02
(PID.TID 0000.0001) %MON dynstat_uvel_mean            =  -9.5438097642966E-08
(PID.TID 0000.0001) %MON dynstat_uvel_sd              =   2.8500593463052E-03
(PID.TID 0000.0001) %MON dynstat_uvel_del2            =   4.7543098102475E-06
(PID.TID 0000.0001) %MON dynstat_vvel_max             =   4.8381252353144E-02
(PID.TID 0000.0001) %MON dynstat_vvel_min             =  -3.4609684097054E-02
(PID.TID 0000.0001) %MON dynstat_vvel_mean            =   1.5421760550210E-05
(PID.TID 0000.0001) %MON dynstat_vvel_sd              =   1.4442931495695E-03
(PID.TID 0000.0001) %MON dynstat_vvel_del2            =   3.0113619156321E-06
(PID.TID 0000.0001) %MON dynstat_wvel_max             =   2.7816227520418E-03
(PID.TID 0000.0001) %MON dynstat_wvel_min             =  -2.6629137803756E-03
(PID.TID 0000.0001) %MON dynstat_wvel_mean            =   7.8353456928688E-09
(PID.TID 0000.0001) %MON dynstat_wvel_sd              =   5.1727815582959E-05
(PID.TID 0000.0001) %MON dynstat_wvel_del2            =   1.9663404223044E-07
(PID.TID 0000.0001) %MON dynstat_theta_max            =   1.2000000000000E+00
(PID.TID 0000.0001) %MON dynstat_theta_min            =  -1.0000000000000E+00
(PID.TID 0000.0001) %MON dynstat_theta_mean           =   5.6772524641026E-01
(PID.TID 0000.0001) %MON dynstat_theta_sd             =   8.6786473625600E-01
(PID.TID 0000.0001) %MON dynstat_theta_del2           =   9.1853668238664E-06
(PID.TID 0000.0001) %MON dynstat_salt_max             =   3.4700000000000E+01
(PID.TID 0000.0001) %MON dynstat_salt_min             =   3.4000000000000E+01
(PID.TID 0000.0001) %MON dynstat_salt_mean            =   3.4498703986623E+01
(PID.TID 0000.0001) %MON dynstat_salt_sd              =   2.7609324512521E-01
(PID.TID 0000.0001) %MON dynstat_salt_del2            =   3.6443853572586E-06
(PID.TID 0000.0001) %MON advcfl_uvel_max              =   9.5701717744323E-03
(PID.TID 0000.0001) %MON advcfl_vvel_max              =   4.8381252353144E-03
(PID.TID 0000.0001) %MON advcfl_wvel_max              =   1.3908113760209E-02
(PID.TID 0000.0001) %MON advcfl_W_hf_max              =   1.3908113760209E-02
(PID.TID 0000.0001) %MON pe_b_mean                    =  -8.2860748182823E-01
(PID.TID 0000.0001) %MON ke_max                       =   4.0335986038814E-03
(PID.TID 0000.0001) %MON ke_mean                      =   5.0239748221962E-06
(PID.TID 0000.0001) %MON ke_vol                       =   4.2724667705634E+12
(PID.TID 0000.0001) // =======================================================
(PID.TID 0000.0001) // End MONITOR dynamic field statistics
(PID.TID 0000.0001) // =======================================================
(PID.TID 0000.0001) // =======================================================
(PID.TID 0000.0001) // Begin OBCS MONITOR field statistics
(PID.TID 0000.0001) // =======================================================
(PID.TID 0000.0001) %MON obc_N_vVel_max               =   1.5065921635546E-05
(PID.TID 0000.0001) %MON obc_N_vVel_min               =   1.5065921635546E-05
(PID.TID 0000.0001) %MON obc_N_vVel_mean              =   1.5065921635546E-05
(PID.TID 0000.0001) %MON obc_N_vVel_sd                =   3.9382275817135E-12
(PID.TID 0000.0001) %MON obc_N_vVel_Int               =   9.9435082794601E+02
(PID.TID 0000.0001) // =======================================================
(PID.TID 0000.0001) // End OBCS MONITOR field statistics
(PID.TID 0000.0001) // =======================================================
 cg2d: Sum(rhs),rhsMax =   4.50118406564716E+00  2.99985214862391E+02
(PID.TID 0000.0001)      cg2d_init_res =   1.53845959530608E-05
(PID.TID 0000.0001)      cg2d_iters(min,last) =      -1      85
(PID.TID 0000.0001)      cg2d_last_res =   9.98635784159904E-12
(PID.TID 0000.0001) // =======================================================
(PID.TID 0000.0001) // Begin MONITOR dynamic field statistics
(PID.TID 0000.0001) // =======================================================
(PID.TID 0000.0001) %MON time_tsnumber                =                  1704
(PID.TID 0000.0001) %MON time_secondsf                =   1.7040000000000E+05
(PID.TID 0000.0001) %MON dynstat_eta_max              =   5.8198220216734E+00
(PID.TID 0000.0001) %MON dynstat_eta_min              =  -1.4194320063227E+01
(PID.TID 0000.0001) %MON dynstat_eta_mean             =  -2.5005345723488E+00
(PID.TID 0000.0001) %MON dynstat_eta_sd               =   4.9490770701042E+00
(PID.TID 0000.0001) %MON dynstat_eta_del2             =   2.0718059321097E-01
(PID.TID 0000.0001) %MON dynstat_uvel_max             =   2.2009612184410E-02
(PID.TID 0000.0001) %MON dynstat_uvel_min             =  -9.5878895159325E-02
(PID.TID 0000.0001) %MON dynstat_uvel_mean            =  -9.6380907267766E-08
(PID.TID 0000.0001) %MON dynstat_uvel_sd              =   2.8552646420970E-03
(PID.TID 0000.0001) %MON dynstat_uvel_del2            =   4.7649777751331E-06
(PID.TID 0000.0001) %MON dynstat_vvel_max             =   4.8415115332647E-02
(PID.TID 0000.0001) %MON dynstat_vvel_min             =  -3.4674099681551E-02
(PID.TID 0000.0001) %MON dynstat_vvel_mean            =   1.5421430187045E-05
(PID.TID 0000.0001) %MON dynstat_vvel_sd              =   1.4468700582897E-03
(PID.TID 0000.0001) %MON dynstat_vvel_del2            =   3.0168324453409E-06
(PID.TID 0000.0001) %MON dynstat_wvel_max             =   2.7838472484467E-03
(PID.TID 0000.0001) %MON dynstat_wvel_min             =  -2.6633948329901E-03
(PID.TID 0000.0001) %MON dynstat_wvel_mean            =   7.8354508955815E-09
(PID.TID 0000.0001) %MON dynstat_wvel_sd              =   5.1803237987282E-05
(PID.TID 0000.0001) %MON dynstat_wvel_del2            =   1.9689351961737E-07
(PID.TID 0000.0001) %MON dynstat_theta_max            =   1.2000000000000E+00
(PID.TID 0000.0001) %MON dynstat_theta_min            =  -1.0000000000000E+00
(PID.TID 0000.0001) %MON dynstat_theta_mean           =   5.6772270007123E-01
(PID.TID 0000.0001) %MON dynstat_theta_sd             =   8.6786351743378E-01
(PID.TID 0000.0001) %MON dynstat_theta_del2           =   9.1999872933880E-06
(PID.TID 0000.0001) %MON dynstat_salt_max             =   3.4700000000000E+01
(PID.TID 0000.0001) %MON dynstat_salt_min             =   3.4000000000000E+01
(PID.TID 0000.0001) %MON dynstat_salt_mean            =   3.4498702967371E+01
(PID.TID 0000.0001) %MON dynstat_salt_sd              =   2.7609278996021E-01
(PID.TID 0000.0001) %MON dynstat_salt_del2            =   3.6502267410951E-06
(PID.TID 0000.0001) %MON advcfl_uvel_max              =   9.5878895159325E-03
(PID.TID 0000.0001) %MON advcfl_vvel_max              =   4.8415115332647E-03
(PID.TID 0000.0001) %MON advcfl_wvel_max              =   1.3919236242233E-02
(PID.TID 0000.0001) %MON advcfl_W_hf_max              =   1.3919236242233E-02
(PID.TID 0000.0001) %MON pe_b_mean                    =  -8.2860499800101E-01
(PID.TID 0000.0001) %MON ke_max                       =   4.0470114472902E-03
(PID.TID 0000.0001) %MON ke_mean                      =   5.0422543957781E-06
(PID.TID 0000.0001) %MON ke_vol                       =   4.2724667975079E+12
(PID.TID 0000.0001) // =======================================================
(PID.TID 0000.0001) // End MONITOR dynamic field statistics
(PID.TID 0000.0001) // =======================================================
(PID.TID 0000.0001) // =======================================================
(PID.TID 0000.0001) // Begin OBCS MONITOR field statistics
(PID.TID 0000.0001) // =======================================================
(PID.TID 0000.0001) %MON obc_N_vVel_max               =   1.5065816626156E-05
(PID.TID 0000.0001) %MON obc_N_vVel_min               =   1.5065816626156E-05
(PID.TID 0000.0001) %MON obc_N_vVel_mean              =   1.5065816626156E-05
(PID.TID 0000.0001) %MON obc_N_vVel_sd                =  -6.3331015648591E-24
(PID.TID 0000.0001) %MON obc_N_vVel_Int               =   9.9434389732631E+02
(PID.TID 0000.0001) // =======================================================
(PID.TID 0000.0001) // End OBCS MONITOR field statistics
(PID.TID 0000.0001) // =======================================================
 cg2d: Sum(rhs),rhsMax =   4.50117445656425E+00  2.99985303512700E+02
(PID.TID 0000.0001)      cg2d_init_res =   1.54041401944162E-05
(PID.TID 0000.0001)      cg2d_iters(min,last) =      -1      86
(PID.TID 0000.0001)      cg2d_last_res =   9.45264432540040E-12
(PID.TID 0000.0001) // =======================================================
(PID.TID 0000.0001) // Begin MONITOR dynamic field statistics
(PID.TID 0000.0001) // =======================================================
(PID.TID 0000.0001) %MON time_tsnumber                =                  1705
(PID.TID 0000.0001) %MON time_secondsf                =   1.7050000000000E+05
(PID.TID 0000.0001) %MON dynstat_eta_max              =   5.8199636229656E+00
(PID.TID 0000.0001) %MON dynstat_eta_min              =  -1.4194342359190E+01
(PID.TID 0000.0001) %MON dynstat_eta_mean             =  -2.5005299731779E+00
(PID.TID 0000.0001) %MON dynstat_eta_sd               =   4.9490763821156E+00
(PID.TID 0000.0001) %MON dynstat_eta_del2             =   2.0718067066351E-01
(PID.TID 0000.0001) %MON dynstat_uvel_max             =   2.2051198669809E-02
(PID.TID 0000.0001) %MON dynstat_uvel_min             =  -9.6056116614639E-02
(PID.TID 0000.0001) %MON dynstat_uvel_mean            =  -9.7518541971648E-08
(PID.TID 0000.0001) %MON dynstat_uvel_sd              =   2.8604749337113E-03
(PID.TID 0000.0001) %MON dynstat_uvel_del2            =   4.7756632931345E-06
(PID.TID 0000.0001) %MON dynstat_vvel_max             =   4.8448903872591E-02
(PID.TID 0000.0001) %MON dynstat_vvel_min             =  -3.4738461242233E-02
(PID.TID 0000.0001) %MON dynstat_vvel_mean            =   1.5420847247233E-05
(PID.TID 0000.0001) %MON dynstat_vvel_sd              =   1.4494506404101E-03
(PID.TID 0000.0001) %MON dynstat_vvel_del2            =   3.0223108899014E-06
(PID.TID 0000.0001) %MON dynstat_wvel_max             =   2.7860671940661E-03
(PID.TID 0000.0001) %MON dynstat_wvel_min             =  -2.6638436014681E-03
(PID.TID 0000.0001) %MON dynstat_wvel_mean            =   7.8315336087359E-09
(PID.TID 0000.0001) %MON dynstat_wvel_sd              =   5.1878178978239E-05
(PID.TID 0000.0001) %MON dynstat_wvel_del2            =   1.9715069841579E-07
(PID.TID 0000.0001) %MON dynstat_theta_max            =   1.2000000000000E+00
(PID.TID 0000.0001) %MON dynstat_theta_min            =  -1.0000000000000E+00
(PID.TID 0000.0001) %MON dynstat_theta_mean           =   5.6772014994275E-01
(PID.TID 0000.0001) %MON dynstat_theta_sd             =   8.6786229727873E-01
(PID.TID 0000.0001) %MON dynstat_theta_del2           =   9.2146208835599E-06
(PID.TID 0000.0001) %MON dynstat_salt_max             =   3.4700000000000E+01
(PID.TID 0000.0001) %MON dynstat_salt_min             =   3.4000000000000E+01
(PID.TID 0000.0001) %MON dynstat_salt_mean            =   3.4498701946603E+01
(PID.TID 0000.0001) %MON dynstat_salt_sd              =   2.7609233435306E-01
(PID.TID 0000.0001) %MON dynstat_salt_del2            =   3.6560735943816E-06
(PID.TID 0000.0001) %MON advcfl_uvel_max              =   9.6056116614639E-03
(PID.TID 0000.0001) %MON advcfl_vvel_max              =   4.8448903872591E-03
(PID.TID 0000.0001) %MON advcfl_wvel_max              =   1.3930335970331E-02
(PID.TID 0000.0001) %MON advcfl_W_hf_max              =   1.3930335970331E-02
(PID.TID 0000.0001) %MON pe_b_mean                    =  -8.2860250308933E-01
(PID.TID 0000.0001) %MON ke_max                       =   4.0604491706761E-03
(PID.TID 0000.0001) %MON ke_mean                      =   5.0605864949069E-06
(PID.TID 0000.0001) %MON ke_vol                       =   4.2724668246402E+12
(PID.TID 0000.0001) // =======================================================
(PID.TID 0000.0001) // End MONITOR dynamic field statistics
(PID.TID 0000.0001) // =======================================================
(PID.TID 0000.0001) // =======================================================
(PID.TID 0000.0001) // Begin OBCS MONITOR field statistics
(PID.TID 0000.0001) // =======================================================
(PID.TID 0000.0001) %MON obc_N_vVel_max               =   1.5065875003422E-05
(PID.TID 0000.0001) %MON obc_N_vVel_min               =   1.5065875003422E-05
(PID.TID 0000.0001) %MON obc_N_vVel_mean              =   1.5065875003422E-05
(PID.TID 0000.0001) %MON obc_N_vVel_sd                =   3.9513332005715E-12
(PID.TID 0000.0001) %MON obc_N_vVel_Int               =   9.9434775022583E+02
(PID.TID 0000.0001) // =======================================================
(PID.TID 0000.0001) // End OBCS MONITOR field statistics
(PID.TID 0000.0001) // =======================================================
 cg2d: Sum(rhs),rhsMax =   4.50116478960227E+00  2.99985392245233E+02
(PID.TID 0000.0001)      cg2d_init_res =   1.54237763537439E-05
(PID.TID 0000.0001)      cg2d_iters(min,last) =      -1      86
(PID.TID 0000.0001)      cg2d_last_res =   9.66366846813587E-12
(PID.TID 0000.0001) // =======================================================
(PID.TID 0000.0001) // Begin MONITOR dynamic field statistics
(PID.TID 0000.0001) // =======================================================
(PID.TID 0000.0001) %MON time_tsnumber                =                  1706
(PID.TID 0000.0001) %MON time_secondsf                =   1.7060000000000E+05
(PID.TID 0000.0001) %MON dynstat_eta_max              =   5.8201054992527E+00
(PID.TID 0000.0001) %MON dynstat_eta_min              =  -1.4194364650619E+01
(PID.TID 0000.0001) %MON dynstat_eta_mean             =  -2.5005253425357E+00
(PID.TID 0000.0001) %MON dynstat_eta_sd               =   4.9490756846446E+00
(PID.TID 0000.0001) %MON dynstat_eta_del2             =   2.0718074820157E-01
(PID.TID 0000.0001) %MON dynstat_uvel_max             =   2.2092836469398E-02
(PID.TID 0000.0001) %MON dynstat_uvel_min             =  -9.6233381107794E-02
(PID.TID 0000.0001) %MON dynstat_uvel_mean            =  -9.8533152436040E-08
(PID.TID 0000.0001) %MON dynstat_uvel_sd              =   2.8656902280168E-03
(PID.TID 0000.0001) %MON dynstat_uvel_del2            =   4.7863663480958E-06
(PID.TID 0000.0001) %MON dynstat_vvel_max             =   4.8482618740774E-02
(PID.TID 0000.0001) %MON dynstat_vvel_min             =  -3.4802767526852E-02
(PID.TID 0000.0001) %MON dynstat_vvel_mean            =   1.5420094737218E-05
(PID.TID 0000.0001) %MON dynstat_vvel_sd              =   1.4520348934248E-03
(PID.TID 0000.0001) %MON dynstat_vvel_del2            =   3.0277974125947E-06
(PID.TID 0000.0001) %MON dynstat_wvel_max             =   2.7882825869248E-03
(PID.TID 0000.0001) %MON dynstat_wvel_min             =  -2.6642600095483E-03
(PID.TID 0000.0001) %MON dynstat_wvel_mean            =   7.8252332208686E-09
(PID.TID 0000.0001) %MON dynstat_wvel_sd              =   5.1952770875546E-05
(PID.TID 0000.0001) %MON dynstat_wvel_del2            =   1.9740607506044E-07
(PID.TID 0000.0001) %MON dynstat_theta_max            =   1.2000000000000E+00
(PID.TID 0000.0001) %MON dynstat_theta_min            =  -1.0000000000000E+00
(PID.TID 0000.0001) %MON dynstat_theta_mean           =   5.6771759602275E-01
(PID.TID 0000.0001) %MON dynstat_theta_sd             =   8.6786107579183E-01
(PID.TID 0000.0001) %MON dynstat_theta_del2           =   9.2292673884401E-06
(PID.TID 0000.0001) %MON dynstat_salt_max             =   3.4700000000000E+01
(PID.TID 0000.0001) %MON dynstat_salt_min             =   3.4000000000000E+01
(PID.TID 0000.0001) %MON dynstat_salt_mean            =   3.4498700924319E+01
(PID.TID 0000.0001) %MON dynstat_salt_sd              =   2.7609187830433E-01
(PID.TID 0000.0001) %MON dynstat_salt_del2            =   3.6619258656990E-06
(PID.TID 0000.0001) %MON advcfl_uvel_max              =   9.6233381107794E-03
(PID.TID 0000.0001) %MON advcfl_vvel_max              =   4.8482618740774E-03
(PID.TID 0000.0001) %MON advcfl_wvel_max              =   1.3941412934624E-02
(PID.TID 0000.0001) %MON advcfl_W_hf_max              =   1.3941412934624E-02
(PID.TID 0000.0001) %MON pe_b_mean                    =  -8.2859999701271E-01
(PID.TID 0000.0001) %MON ke_max                       =   4.0739117722730E-03
(PID.TID 0000.0001) %MON ke_mean                      =   5.0789712414852E-06
(PID.TID 0000.0001) %MON ke_vol                       =   4.2724668519593E+12
(PID.TID 0000.0001) // =======================================================
(PID.TID 0000.0001) // End MONITOR dynamic field statistics
(PID.TID 0000.0001) // =======================================================
(PID.TID 0000.0001) // =======================================================
(PID.TID 0000.0001) // Begin OBCS MONITOR field statistics
(PID.TID 0000.0001) // =======================================================
(PID.TID 0000.0001) %MON obc_N_vVel_max               =   1.5065928437464E-05
(PID.TID 0000.0001) %MON obc_N_vVel_min               =   1.5065928437463E-05
(PID.TID 0000.0001) %MON obc_N_vVel_mean              =   1.5065928437463E-05
(PID.TID 0000.0001) %MON obc_N_vVel_sd                =   3.9349443568146E-12
(PID.TID 0000.0001) %MON obc_N_vVel_Int               =   9.9435127687257E+02
(PID.TID 0000.0001) // =======================================================
(PID.TID 0000.0001) // End OBCS MONITOR field statistics
(PID.TID 0000.0001) // =======================================================
 cg2d: Sum(rhs),rhsMax =   4.50115506453463E+00  2.99985481063378E+02
(PID.TID 0000.0001)      cg2d_init_res =   1.54435249531670E-05
(PID.TID 0000.0001)      cg2d_iters(min,last) =      -1      86
(PID.TID 0000.0001)      cg2d_last_res =   9.78856570931923E-12
(PID.TID 0000.0001) // =======================================================
(PID.TID 0000.0001) // Begin MONITOR dynamic field statistics
(PID.TID 0000.0001) // =======================================================
(PID.TID 0000.0001) %MON time_tsnumber                =                  1707
(PID.TID 0000.0001) %MON time_secondsf                =   1.7070000000000E+05
(PID.TID 0000.0001) %MON dynstat_eta_max              =   5.8202476567623E+00
(PID.TID 0000.0001) %MON dynstat_eta_min              =  -1.4194386934391E+01
(PID.TID 0000.0001) %MON dynstat_eta_mean             =  -2.5005206803246E+00
(PID.TID 0000.0001) %MON dynstat_eta_sd               =   4.9490749776465E+00
(PID.TID 0000.0001) %MON dynstat_eta_del2             =   2.0718082582586E-01
(PID.TID 0000.0001) %MON dynstat_uvel_max             =   2.2134525436812E-02
(PID.TID 0000.0001) %MON dynstat_uvel_min             =  -9.6410687517926E-02
(PID.TID 0000.0001) %MON dynstat_uvel_mean            =  -9.9229280849552E-08
(PID.TID 0000.0001) %MON dynstat_uvel_sd              =   2.8709105227807E-03
(PID.TID 0000.0001) %MON dynstat_uvel_del2            =   4.7970869247677E-06
(PID.TID 0000.0001) %MON dynstat_vvel_max             =   4.8516260309352E-02
(PID.TID 0000.0001) %MON dynstat_vvel_min             =  -3.4867016700701E-02
(PID.TID 0000.0001) %MON dynstat_vvel_mean            =   1.5419258977777E-05
(PID.TID 0000.0001) %MON dynstat_vvel_sd              =   1.4546228355714E-03
(PID.TID 0000.0001) %MON dynstat_vvel_del2            =   3.0332921967974E-06
(PID.TID 0000.0001) %MON dynstat_wvel_max             =   2.7904934300971E-03
(PID.TID 0000.0001) %MON dynstat_wvel_min             =  -2.6646440027233E-03
(PID.TID 0000.0001) %MON dynstat_wvel_mean            =   7.8180065659888E-09
(PID.TID 0000.0001) %MON dynstat_wvel_sd              =   5.2027164928581E-05
(PID.TID 0000.0001) %MON dynstat_wvel_del2            =   1.9766025889155E-07
(PID.TID 0000.0001) %MON dynstat_theta_max            =   1.2000000000000E+00
(PID.TID 0000.0001) %MON dynstat_theta_min            =  -1.0000000000000E+00
(PID.TID 0000.0001) %MON dynstat_theta_mean           =   5.6771503830935E-01
(PID.TID 0000.0001) %MON dynstat_theta_sd             =   8.6785985297310E-01
(PID.TID 0000.0001) %MON dynstat_theta_del2           =   9.2439265990393E-06
(PID.TID 0000.0001) %MON dynstat_salt_max             =   3.4700000000000E+01
(PID.TID 0000.0001) %MON dynstat_salt_min             =   3.4000000000000E+01
(PID.TID 0000.0001) %MON dynstat_salt_mean            =   3.4498699900518E+01
(PID.TID 0000.0001) %MON dynstat_salt_sd              =   2.7609142181422E-01
(PID.TID 0000.0001) %MON dynstat_salt_del2            =   3.6677835066118E-06
(PID.TID 0000.0001) %MON advcfl_uvel_max              =   9.6410687517926E-03
(PID.TID 0000.0001) %MON advcfl_vvel_max              =   4.8516260309352E-03
(PID.TID 0000.0001) %MON advcfl_wvel_max              =   1.3952467150485E-02
(PID.TID 0000.0001) %MON advcfl_W_hf_max              =   1.3952467150485E-02
(PID.TID 0000.0001) %MON pe_b_mean                    =  -8.2859747971916E-01
(PID.TID 0000.0001) %MON ke_max                       =   4.0873992362826E-03
(PID.TID 0000.0001) %MON ke_mean                      =   5.0974087622540E-06
(PID.TID 0000.0001) %MON ke_vol                       =   4.2724668794653E+12
(PID.TID 0000.0001) // =======================================================
(PID.TID 0000.0001) // End MONITOR dynamic field statistics
(PID.TID 0000.0001) // =======================================================
(PID.TID 0000.0001) // =======================================================
(PID.TID 0000.0001) // Begin OBCS MONITOR field statistics
(PID.TID 0000.0001) // =======================================================
(PID.TID 0000.0001) %MON obc_N_vVel_max               =   1.5065914615075E-05
(PID.TID 0000.0001) %MON obc_N_vVel_min               =   1.5065914615075E-05
(PID.TID 0000.0001) %MON obc_N_vVel_mean              =   1.5065914615075E-05
(PID.TID 0000.0001) %MON obc_N_vVel_sd                =  -9.4867276502175E-24
(PID.TID 0000.0001) %MON obc_N_vVel_Int               =   9.9435036459496E+02
(PID.TID 0000.0001) // =======================================================
(PID.TID 0000.0001) // End OBCS MONITOR field statistics
(PID.TID 0000.0001) // =======================================================
 cg2d: Sum(rhs),rhsMax =   4.50114528110309E+00  2.99985569970777E+02
(PID.TID 0000.0001)      cg2d_init_res =   1.54633878756254E-05
(PID.TID 0000.0001)      cg2d_iters(min,last) =      -1      86
(PID.TID 0000.0001)      cg2d_last_res =   9.82568372810550E-12
(PID.TID 0000.0001) // =======================================================
(PID.TID 0000.0001) // Begin MONITOR dynamic field statistics
(PID.TID 0000.0001) // =======================================================
(PID.TID 0000.0001) %MON time_tsnumber                =                  1708
(PID.TID 0000.0001) %MON time_secondsf                =   1.7080000000000E+05
(PID.TID 0000.0001) %MON dynstat_eta_max              =   5.8203900996027E+00
(PID.TID 0000.0001) %MON dynstat_eta_min              =  -1.4194409208874E+01
(PID.TID 0000.0001) %MON dynstat_eta_mean             =  -2.5005159864314E+00
(PID.TID 0000.0001) %MON dynstat_eta_sd               =   4.9490742610517E+00
(PID.TID 0000.0001) %MON dynstat_eta_del2             =   2.0718090353650E-01
(PID.TID 0000.0001) %MON dynstat_uvel_max             =   2.2176265386543E-02
(PID.TID 0000.0001) %MON dynstat_uvel_min             =  -9.6588034658092E-02
(PID.TID 0000.0001) %MON dynstat_uvel_mean            =  -9.9546246589139E-08
(PID.TID 0000.0001) %MON dynstat_uvel_sd              =   2.8761358077548E-03
(PID.TID 0000.0001) %MON dynstat_uvel_del2            =   4.8078250083440E-06
(PID.TID 0000.0001) %MON dynstat_vvel_max             =   4.8549828620662E-02
(PID.TID 0000.0001) %MON dynstat_vvel_min             =  -3.4931206481788E-02
(PID.TID 0000.0001) %MON dynstat_vvel_mean            =   1.5418418002904E-05
(PID.TID 0000.0001) %MON dynstat_vvel_sd              =   1.4572145024014E-03
(PID.TID 0000.0001) %MON dynstat_vvel_del2            =   3.0387954354507E-06
(PID.TID 0000.0001) %MON dynstat_wvel_max             =   2.7926997256807E-03
(PID.TID 0000.0001) %MON dynstat_wvel_min             =  -2.6649955502892E-03
(PID.TID 0000.0001) %MON dynstat_wvel_mean            =   7.8110600645418E-09
(PID.TID 0000.0001) %MON dynstat_wvel_sd              =   5.2101522153375E-05
(PID.TID 0000.0001) %MON dynstat_wvel_del2            =   1.9791393558784E-07
(PID.TID 0000.0001) %MON dynstat_theta_max            =   1.2000000000000E+00
(PID.TID 0000.0001) %MON dynstat_theta_min            =  -1.0000000000000E+00
(PID.TID 0000.0001) %MON dynstat_theta_mean           =   5.6771247680084E-01
(PID.TID 0000.0001) %MON dynstat_theta_sd             =   8.6785862882210E-01
(PID.TID 0000.0001) %MON dynstat_theta_del2           =   9.2585982647615E-06
(PID.TID 0000.0001) %MON dynstat_salt_max             =   3.4700000000000E+01
(PID.TID 0000.0001) %MON dynstat_salt_min             =   3.4000000000000E+01
(PID.TID 0000.0001) %MON dynstat_salt_mean            =   3.4498698875200E+01
(PID.TID 0000.0001) %MON dynstat_salt_sd              =   2.7609096488291E-01
(PID.TID 0000.0001) %MON dynstat_salt_del2            =   3.6736464531019E-06
(PID.TID 0000.0001) %MON advcfl_uvel_max              =   9.6588034658092E-03
(PID.TID 0000.0001) %MON advcfl_vvel_max              =   4.8549828620662E-03
(PID.TID 0000.0001) %MON advcfl_wvel_max              =   1.3963498628404E-02
(PID.TID 0000.0001) %MON advcfl_W_hf_max              =   1.3963498628404E-02
(PID.TID 0000.0001) %MON pe_b_mean                    =  -8.2859495118990E-01
(PID.TID 0000.0001) %MON ke_max                       =   4.1009115395157E-03
(PID.TID 0000.0001) %MON ke_mean                      =   5.1158991867213E-06
(PID.TID 0000.0001) %MON ke_vol                       =   4.2724669071589E+12
(PID.TID 0000.0001) // =======================================================
(PID.TID 0000.0001) // End MONITOR dynamic field statistics
(PID.TID 0000.0001) // =======================================================
(PID.TID 0000.0001) // =======================================================
(PID.TID 0000.0001) // Begin OBCS MONITOR field statistics
(PID.TID 0000.0001) // =======================================================
(PID.TID 0000.0001) %MON obc_N_vVel_max               =   1.5065820362687E-05
(PID.TID 0000.0001) %MON obc_N_vVel_min               =   1.5065820362687E-05
(PID.TID 0000.0001) %MON obc_N_vVel_mean              =   1.5065820362687E-05
(PID.TID 0000.0001) %MON obc_N_vVel_sd                =  -2.0679515313826E-24
(PID.TID 0000.0001) %MON obc_N_vVel_Int               =   9.9434414393737E+02
(PID.TID 0000.0001) // =======================================================
(PID.TID 0000.0001) // End OBCS MONITOR field statistics
(PID.TID 0000.0001) // =======================================================
 cg2d: Sum(rhs),rhsMax =   4.50113543904237E+00  2.99985658970622E+02
(PID.TID 0000.0001)      cg2d_init_res =   1.54833718259234E-05
(PID.TID 0000.0001)      cg2d_iters(min,last) =      -1      86
(PID.TID 0000.0001)      cg2d_last_res =   9.79118497220168E-12
(PID.TID 0000.0001) // =======================================================
(PID.TID 0000.0001) // Begin MONITOR dynamic field statistics
(PID.TID 0000.0001) // =======================================================
(PID.TID 0000.0001) %MON time_tsnumber                =                  1709
(PID.TID 0000.0001) %MON time_secondsf                =   1.7090000000000E+05
(PID.TID 0000.0001) %MON dynstat_eta_max              =   5.8205328290751E+00
(PID.TID 0000.0001) %MON dynstat_eta_min              =  -1.4194431473434E+01
(PID.TID 0000.0001) %MON dynstat_eta_mean             =  -2.5005112607355E+00
(PID.TID 0000.0001) %MON dynstat_eta_sd               =   4.9490735347861E+00
(PID.TID 0000.0001) %MON dynstat_eta_del2             =   2.0718098133353E-01
(PID.TID 0000.0001) %MON dynstat_uvel_max             =   2.2218056103370E-02
(PID.TID 0000.0001) %MON dynstat_uvel_min             =  -9.6765421334810E-02
(PID.TID 0000.0001) %MON dynstat_uvel_mean            =  -9.9535642095031E-08
(PID.TID 0000.0001) %MON dynstat_uvel_sd              =   2.8813660679892E-03
(PID.TID 0000.0001) %MON dynstat_uvel_del2            =   4.8185805829797E-06
(PID.TID 0000.0001) %MON dynstat_vvel_max             =   4.8583323514696E-02
(PID.TID 0000.0001) %MON dynstat_vvel_min             =  -3.4995334466704E-02
(PID.TID 0000.0001) %MON dynstat_vvel_mean            =   1.5417636862454E-05
(PID.TID 0000.0001) %MON dynstat_vvel_sd              =   1.4598099387452E-03
(PID.TID 0000.0001) %MON dynstat_vvel_del2            =   3.0443073198393E-06
(PID.TID 0000.0001) %MON dynstat_wvel_max             =   2.7949014767322E-03
(PID.TID 0000.0001) %MON dynstat_wvel_min             =  -2.6653146280785E-03
(PID.TID 0000.0001) %MON dynstat_wvel_mean            =   7.8054038630322E-09
(PID.TID 0000.0001) %MON dynstat_wvel_sd              =   5.2176003747416E-05
(PID.TID 0000.0001) %MON dynstat_wvel_del2            =   1.9816782488548E-07
(PID.TID 0000.0001) %MON dynstat_theta_max            =   1.2000000000000E+00
(PID.TID 0000.0001) %MON dynstat_theta_min            =  -1.0000000000000E+00
(PID.TID 0000.0001) %MON dynstat_theta_mean           =   5.6770991149581E-01
(PID.TID 0000.0001) %MON dynstat_theta_sd             =   8.6785740333892E-01
(PID.TID 0000.0001) %MON dynstat_theta_del2           =   9.2732821209934E-06
(PID.TID 0000.0001) %MON dynstat_salt_max             =   3.4700000000000E+01
(PID.TID 0000.0001) %MON dynstat_salt_min             =   3.4000000000000E+01
(PID.TID 0000.0001) %MON dynstat_salt_mean            =   3.4498697848363E+01
(PID.TID 0000.0001) %MON dynstat_salt_sd              =   2.7609050751061E-01
(PID.TID 0000.0001) %MON dynstat_salt_del2            =   3.6795146374693E-06
(PID.TID 0000.0001) %MON advcfl_uvel_max              =   9.6765421334810E-03
(PID.TID 0000.0001) %MON advcfl_vvel_max              =   4.8583323514696E-03
(PID.TID 0000.0001) %MON advcfl_wvel_max              =   1.3974507383661E-02
(PID.TID 0000.0001) %MON advcfl_W_hf_max              =   1.3974507383661E-02
(PID.TID 0000.0001) %MON pe_b_mean                    =  -8.2859241143499E-01
(PID.TID 0000.0001) %MON ke_max                       =   4.1144486573356E-03
(PID.TID 0000.0001) %MON ke_mean                      =   5.1344426447462E-06
(PID.TID 0000.0001) %MON ke_vol                       =   4.2724669350406E+12
(PID.TID 0000.0001) // =======================================================
(PID.TID 0000.0001) // End MONITOR dynamic field statistics
(PID.TID 0000.0001) // =======================================================
(PID.TID 0000.0001) // =======================================================
(PID.TID 0000.0001) // Begin OBCS MONITOR field statistics
(PID.TID 0000.0001) // =======================================================
(PID.TID 0000.0001) %MON obc_N_vVel_max               =   1.5065638647307E-05
(PID.TID 0000.0001) %MON obc_N_vVel_min               =   1.5065638647307E-05
(PID.TID 0000.0001) %MON obc_N_vVel_mean              =   1.5065638647307E-05
(PID.TID 0000.0001) %MON obc_N_vVel_sd                =   4.8527103832414E-12
(PID.TID 0000.0001) %MON obc_N_vVel_Int               =   9.9433215072224E+02
(PID.TID 0000.0001) // =======================================================
(PID.TID 0000.0001) // End OBCS MONITOR field statistics
(PID.TID 0000.0001) // =======================================================
 cg2d: Sum(rhs),rhsMax =   4.50112553807625E+00  2.99985748066201E+02
(PID.TID 0000.0001)      cg2d_init_res =   1.55034852346199E-05
(PID.TID 0000.0001)      cg2d_iters(min,last) =      -1      86
(PID.TID 0000.0001)      cg2d_last_res =   9.71122494689236E-12
(PID.TID 0000.0001) // =======================================================
(PID.TID 0000.0001) // Begin MONITOR dynamic field statistics
(PID.TID 0000.0001) // =======================================================
(PID.TID 0000.0001) %MON time_tsnumber                =                  1710
(PID.TID 0000.0001) %MON time_secondsf                =   1.7100000000000E+05
(PID.TID 0000.0001) %MON dynstat_eta_max              =   5.8206758442553E+00
(PID.TID 0000.0001) %MON dynstat_eta_min              =  -1.4194453727529E+01
(PID.TID 0000.0001) %MON dynstat_eta_mean             =  -2.5005065031105E+00
(PID.TID 0000.0001) %MON dynstat_eta_sd               =   4.9490727988037E+00
(PID.TID 0000.0001) %MON dynstat_eta_del2             =   2.0718105921715E-01
(PID.TID 0000.0001) %MON dynstat_uvel_max             =   2.2259897400016E-02
(PID.TID 0000.0001) %MON dynstat_uvel_min             =  -9.6942846359800E-02
(PID.TID 0000.0001) %MON dynstat_uvel_mean            =  -9.9318382115600E-08
(PID.TID 0000.0001) %MON dynstat_uvel_sd              =   2.8866012874173E-03
(PID.TID 0000.0001) %MON dynstat_uvel_del2            =   4.8293536348766E-06
(PID.TID 0000.0001) %MON dynstat_vvel_max             =   4.8616744727428E-02
(PID.TID 0000.0001) %MON dynstat_vvel_min             =  -3.5059398392233E-02
(PID.TID 0000.0001) %MON dynstat_vvel_mean            =   1.5416970253813E-05
(PID.TID 0000.0001) %MON dynstat_vvel_sd              =   1.4624091902166E-03
(PID.TID 0000.0001) %MON dynstat_vvel_del2            =   3.0498280289343E-06
(PID.TID 0000.0001) %MON dynstat_wvel_max             =   2.7970986867990E-03
(PID.TID 0000.0001) %MON dynstat_wvel_min             =  -2.6656012093695E-03
(PID.TID 0000.0001) %MON dynstat_wvel_mean            =   7.8018426794730E-09
(PID.TID 0000.0001) %MON dynstat_wvel_sd              =   5.2250761563494E-05
(PID.TID 0000.0001) %MON dynstat_wvel_del2            =   1.9842263627677E-07
(PID.TID 0000.0001) %MON dynstat_theta_max            =   1.2000000000000E+00
(PID.TID 0000.0001) %MON dynstat_theta_min            =  -1.0000000000000E+00
(PID.TID 0000.0001) %MON dynstat_theta_mean           =   5.6770734239318E-01
(PID.TID 0000.0001) %MON dynstat_theta_sd             =   8.6785617652391E-01
(PID.TID 0000.0001) %MON dynstat_theta_del2           =   9.2879778614084E-06
(PID.TID 0000.0001) %MON dynstat_salt_max             =   3.4700000000000E+01
(PID.TID 0000.0001) %MON dynstat_salt_min             =   3.4000000000000E+01
(PID.TID 0000.0001) %MON dynstat_salt_mean            =   3.4498696820008E+01
(PID.TID 0000.0001) %MON dynstat_salt_sd              =   2.7609004969796E-01
(PID.TID 0000.0001) %MON dynstat_salt_del2            =   3.6853879915663E-06
(PID.TID 0000.0001) %MON advcfl_uvel_max              =   9.6942846359800E-03
(PID.TID 0000.0001) %MON advcfl_vvel_max              =   4.8616744727428E-03
(PID.TID 0000.0001) %MON advcfl_wvel_max              =   1.3985493433995E-02
(PID.TID 0000.0001) %MON advcfl_W_hf_max              =   1.3985493433995E-02
(PID.TID 0000.0001) %MON pe_b_mean                    =  -8.2858986048727E-01
(PID.TID 0000.0001) %MON ke_max                       =   4.1280105664505E-03
(PID.TID 0000.0001) %MON ke_mean                      =   5.1530392642932E-06
(PID.TID 0000.0001) %MON ke_vol                       =   4.2724669631112E+12
(PID.TID 0000.0001) // =======================================================
(PID.TID 0000.0001) // End MONITOR dynamic field statistics
(PID.TID 0000.0001) // =======================================================
(PID.TID 0000.0001) // =======================================================
(PID.TID 0000.0001) // Begin OBCS MONITOR field statistics
(PID.TID 0000.0001) // =======================================================
(PID.TID 0000.0001) %MON obc_N_vVel_max               =   1.5065364217586E-05
(PID.TID 0000.0001) %MON obc_N_vVel_min               =   1.5065364217586E-05
(PID.TID 0000.0001) %MON obc_N_vVel_mean              =   1.5065364217586E-05
(PID.TID 0000.0001) %MON obc_N_vVel_sd                =   3.8114773392954E-12
(PID.TID 0000.0001) %MON obc_N_vVel_Int               =   9.9431403836065E+02
(PID.TID 0000.0001) // =======================================================
(PID.TID 0000.0001) // End OBCS MONITOR field statistics
(PID.TID 0000.0001) // =======================================================
 cg2d: Sum(rhs),rhsMax =   4.50111557795643E+00  2.99985837261124E+02
(PID.TID 0000.0001)      cg2d_init_res =   1.55237285457761E-05
(PID.TID 0000.0001)      cg2d_iters(min,last) =      -1      86
(PID.TID 0000.0001)      cg2d_last_res =   9.61574866536466E-12
(PID.TID 0000.0001) // =======================================================
(PID.TID 0000.0001) // Begin MONITOR dynamic field statistics
(PID.TID 0000.0001) // =======================================================
(PID.TID 0000.0001) %MON time_tsnumber                =                  1711
(PID.TID 0000.0001) %MON time_secondsf                =   1.7110000000000E+05
(PID.TID 0000.0001) %MON dynstat_eta_max              =   5.8208191426986E+00
(PID.TID 0000.0001) %MON dynstat_eta_min              =  -1.4194475970237E+01
(PID.TID 0000.0001) %MON dynstat_eta_mean             =  -2.5005017134488E+00
(PID.TID 0000.0001) %MON dynstat_eta_sd               =   4.9490720531086E+00
(PID.TID 0000.0001) %MON dynstat_eta_del2             =   2.0718113718748E-01
(PID.TID 0000.0001) %MON dynstat_uvel_max             =   2.2301789144745E-02
(PID.TID 0000.0001) %MON dynstat_uvel_min             =  -9.7120308529309E-02
(PID.TID 0000.0001) %MON dynstat_uvel_mean            =  -9.9036269190452E-08
(PID.TID 0000.0001) %MON dynstat_uvel_sd              =   2.8918414512938E-03
(PID.TID 0000.0001) %MON dynstat_uvel_del2            =   4.8401441506314E-06
(PID.TID 0000.0001) %MON dynstat_vvel_max             =   4.8650091963615E-02
(PID.TID 0000.0001) %MON dynstat_vvel_min             =  -3.5123396244131E-02
(PID.TID 0000.0001) %MON dynstat_vvel_mean            =   1.5416470381582E-05
(PID.TID 0000.0001) %MON dynstat_vvel_sd              =   1.4650122972983E-03
(PID.TID 0000.0001) %MON dynstat_vvel_del2            =   3.0553577179188E-06
(PID.TID 0000.0001) %MON dynstat_wvel_max             =   2.7992913596663E-03
(PID.TID 0000.0001) %MON dynstat_wvel_min             =  -2.6658552610712E-03
(PID.TID 0000.0001) %MON dynstat_wvel_mean            =   7.8008709686686E-09
(PID.TID 0000.0001) %MON dynstat_wvel_sd              =   5.2325929252412E-05
(PID.TID 0000.0001) %MON dynstat_wvel_del2            =   1.9867902566394E-07
(PID.TID 0000.0001) %MON dynstat_theta_max            =   1.2000000000000E+00
(PID.TID 0000.0001) %MON dynstat_theta_min            =  -1.0000000000000E+00
(PID.TID 0000.0001) %MON dynstat_theta_mean           =   5.6770476949203E-01
(PID.TID 0000.0001) %MON dynstat_theta_sd             =   8.6785494837723E-01
(PID.TID 0000.0001) %MON dynstat_theta_del2           =   9.3026854162069E-06
(PID.TID 0000.0001) %MON dynstat_salt_max             =   3.4700000000000E+01
(PID.TID 0000.0001) %MON dynstat_salt_min             =   3.4000000000000E+01
(PID.TID 0000.0001) %MON dynstat_salt_mean            =   3.4498695790133E+01
(PID.TID 0000.0001) %MON dynstat_salt_sd              =   2.7608959144511E-01
(PID.TID 0000.0001) %MON dynstat_salt_del2            =   3.6912664673851E-06
(PID.TID 0000.0001) %MON advcfl_uvel_max              =   9.7120308529309E-03
(PID.TID 0000.0001) %MON advcfl_vvel_max              =   4.8650091963615E-03
(PID.TID 0000.0001) %MON advcfl_wvel_max              =   1.3996456798331E-02
(PID.TID 0000.0001) %MON advcfl_W_hf_max              =   1.3996456798331E-02
(PID.TID 0000.0001) %MON pe_b_mean                    =  -8.2858729839799E-01
(PID.TID 0000.0001) %MON ke_max                       =   4.1415972441327E-03
(PID.TID 0000.0001) %MON ke_mean                      =   5.1716891697758E-06
(PID.TID 0000.0001) %MON ke_vol                       =   4.2724669913715E+12
(PID.TID 0000.0001) // =======================================================
(PID.TID 0000.0001) // End MONITOR dynamic field statistics
(PID.TID 0000.0001) // =======================================================
(PID.TID 0000.0001) // =======================================================
(PID.TID 0000.0001) // Begin OBCS MONITOR field statistics
(PID.TID 0000.0001) // =======================================================
(PID.TID 0000.0001) %MON obc_N_vVel_max               =   1.5065013290727E-05
(PID.TID 0000.0001) %MON obc_N_vVel_min               =   1.5065013290727E-05
(PID.TID 0000.0001) %MON obc_N_vVel_mean              =   1.5065013290727E-05
(PID.TID 0000.0001) %MON obc_N_vVel_sd                =   3.9806630866250E-12
(PID.TID 0000.0001) %MON obc_N_vVel_Int               =   9.9429087718796E+02
(PID.TID 0000.0001) // =======================================================
(PID.TID 0000.0001) // End OBCS MONITOR field statistics
(PID.TID 0000.0001) // =======================================================
 cg2d: Sum(rhs),rhsMax =   4.50110555853582E+00  2.99985926559383E+02
(PID.TID 0000.0001)      cg2d_init_res =   1.55441033823883E-05
(PID.TID 0000.0001)      cg2d_iters(min,last) =      -1      86
(PID.TID 0000.0001)      cg2d_last_res =   9.53247525736297E-12
(PID.TID 0000.0001) // =======================================================
(PID.TID 0000.0001) // Begin MONITOR dynamic field statistics
(PID.TID 0000.0001) // =======================================================
(PID.TID 0000.0001) %MON time_tsnumber                =                  1712
(PID.TID 0000.0001) %MON time_secondsf                =   1.7120000000000E+05
(PID.TID 0000.0001) %MON dynstat_eta_max              =   5.8209627210546E+00
(PID.TID 0000.0001) %MON dynstat_eta_min              =  -1.4194498200348E+01
(PID.TID 0000.0001) %MON dynstat_eta_mean             =  -2.5004968917018E+00
(PID.TID 0000.0001) %MON dynstat_eta_sd               =   4.9490712977675E+00
(PID.TID 0000.0001) %MON dynstat_eta_del2             =   2.0718121524464E-01
(PID.TID 0000.0001) %MON dynstat_uvel_max             =   2.2343731258388E-02
(PID.TID 0000.0001) %MON dynstat_uvel_min             =  -9.7297806601061E-02
(PID.TID 0000.0001) %MON dynstat_uvel_mean            =  -9.8810426263161E-08
(PID.TID 0000.0001) %MON dynstat_uvel_sd              =   2.8970865467962E-03
(PID.TID 0000.0001) %MON dynstat_uvel_del2            =   4.8509521168771E-06
(PID.TID 0000.0001) %MON dynstat_vvel_max             =   4.8683364952415E-02
(PID.TID 0000.0001) %MON dynstat_vvel_min             =  -3.5187326233814E-02
(PID.TID 0000.0001) %MON dynstat_vvel_mean            =   1.5416194953434E-05
(PID.TID 0000.0001) %MON dynstat_vvel_sd              =   1.4676192922155E-03
(PID.TID 0000.0001) %MON dynstat_vvel_del2            =   3.0608965103091E-06
(PID.TID 0000.0001) %MON dynstat_wvel_max             =   2.8014794989348E-03
(PID.TID 0000.0001) %MON dynstat_wvel_min             =  -2.6660767450866E-03
(PID.TID 0000.0001) %MON dynstat_wvel_mean            =   7.8026125793406E-09
(PID.TID 0000.0001) %MON dynstat_wvel_sd              =   5.2401614508303E-05
(PID.TID 0000.0001) %MON dynstat_wvel_del2            =   1.9893755466571E-07
(PID.TID 0000.0001) %MON dynstat_theta_max            =   1.2000000000000E+00
(PID.TID 0000.0001) %MON dynstat_theta_min            =  -1.0000000000000E+00
(PID.TID 0000.0001) %MON dynstat_theta_mean           =   5.6770219279158E-01
(PID.TID 0000.0001) %MON dynstat_theta_sd             =   8.6785371889823E-01
(PID.TID 0000.0001) %MON dynstat_theta_del2           =   9.3174045371385E-06
(PID.TID 0000.0001) %MON dynstat_salt_max             =   3.4700000000000E+01
(PID.TID 0000.0001) %MON dynstat_salt_min             =   3.4000000000000E+01
(PID.TID 0000.0001) %MON dynstat_salt_mean            =   3.4498694758738E+01
(PID.TID 0000.0001) %MON dynstat_salt_sd              =   2.7608913275219E-01
(PID.TID 0000.0001) %MON dynstat_salt_del2            =   3.6971500112198E-06
(PID.TID 0000.0001) %MON advcfl_uvel_max              =   9.7297806601061E-03
(PID.TID 0000.0001) %MON advcfl_vvel_max              =   4.8683364952415E-03
(PID.TID 0000.0001) %MON advcfl_wvel_max              =   1.4007397494674E-02
(PID.TID 0000.0001) %MON advcfl_W_hf_max              =   1.4007397494674E-02
(PID.TID 0000.0001) %MON pe_b_mean                    =  -8.2858472523472E-01
(PID.TID 0000.0001) %MON ke_max                       =   4.1552086662308E-03
(PID.TID 0000.0001) %MON ke_mean                      =   5.1903924792643E-06
(PID.TID 0000.0001) %MON ke_vol                       =   4.2724670198221E+12
(PID.TID 0000.0001) // =======================================================
(PID.TID 0000.0001) // End MONITOR dynamic field statistics
(PID.TID 0000.0001) // =======================================================
(PID.TID 0000.0001) // =======================================================
(PID.TID 0000.0001) // Begin OBCS MONITOR field statistics
(PID.TID 0000.0001) // =======================================================
(PID.TID 0000.0001) %MON obc_N_vVel_max               =   1.5064639093575E-05
(PID.TID 0000.0001) %MON obc_N_vVel_min               =   1.5064639093575E-05
(PID.TID 0000.0001) %MON obc_N_vVel_mean              =   1.5064639093575E-05
(PID.TID 0000.0001) %MON obc_N_vVel_sd                =   4.4988971552378E-12
(PID.TID 0000.0001) %MON obc_N_vVel_Int               =   9.9426618017595E+02
(PID.TID 0000.0001) // =======================================================
(PID.TID 0000.0001) // End OBCS MONITOR field statistics
(PID.TID 0000.0001) // =======================================================
 cg2d: Sum(rhs),rhsMax =   4.50109547984535E+00  2.99986015965268E+02
(PID.TID 0000.0001)      cg2d_init_res =   1.55646062932562E-05
(PID.TID 0000.0001)      cg2d_iters(min,last) =      -1      86
(PID.TID 0000.0001)      cg2d_last_res =   9.48129139124799E-12
(PID.TID 0000.0001) // =======================================================
(PID.TID 0000.0001) // Begin MONITOR dynamic field statistics
(PID.TID 0000.0001) // =======================================================
(PID.TID 0000.0001) %MON time_tsnumber                =                  1713
(PID.TID 0000.0001) %MON time_secondsf                =   1.7130000000000E+05
(PID.TID 0000.0001) %MON dynstat_eta_max              =   5.8211065755859E+00
(PID.TID 0000.0001) %MON dynstat_eta_min              =  -1.4194520416761E+01
(PID.TID 0000.0001) %MON dynstat_eta_mean             =  -2.5004920379224E+00
(PID.TID 0000.0001) %MON dynstat_eta_sd               =   4.9490705329091E+00
(PID.TID 0000.0001) %MON dynstat_eta_del2             =   2.0718129338870E-01
(PID.TID 0000.0001) %MON dynstat_uvel_max             =   2.2385723694862E-02
(PID.TID 0000.0001) %MON dynstat_uvel_min             =  -9.7475339293005E-02
(PID.TID 0000.0001) %MON dynstat_uvel_mean            =  -9.8714572007680E-08
(PID.TID 0000.0001) %MON dynstat_uvel_sd              =   2.9023365627652E-03
(PID.TID 0000.0001) %MON dynstat_uvel_del2            =   4.8617775201014E-06
(PID.TID 0000.0001) %MON dynstat_vvel_max             =   4.8716563487066E-02
(PID.TID 0000.0001) %MON dynstat_vvel_min             =  -3.5251186702522E-02
(PID.TID 0000.0001) %MON dynstat_vvel_mean            =   1.5416210703638E-05
(PID.TID 0000.0001) %MON dynstat_vvel_sd              =   1.4702301978973E-03
(PID.TID 0000.0001) %MON dynstat_vvel_del2            =   3.0664444915935E-06
(PID.TID 0000.0001) %MON dynstat_wvel_max             =   2.8036631075814E-03
(PID.TID 0000.0001) %MON dynstat_wvel_min             =  -2.6667676013477E-03
(PID.TID 0000.0001) %MON dynstat_wvel_mean            =   7.8068486439858E-09
(PID.TID 0000.0001) %MON dynstat_wvel_sd              =   5.2477892937020E-05
(PID.TID 0000.0001) %MON dynstat_wvel_del2            =   1.9919865629398E-07
(PID.TID 0000.0001) %MON dynstat_theta_max            =   1.2000000000000E+00
(PID.TID 0000.0001) %MON dynstat_theta_min            =  -1.0000000000000E+00
(PID.TID 0000.0001) %MON dynstat_theta_mean           =   5.6769961229113E-01
(PID.TID 0000.0001) %MON dynstat_theta_sd             =   8.6785248808525E-01
(PID.TID 0000.0001) %MON dynstat_theta_del2           =   9.3321351756709E-06
(PID.TID 0000.0001) %MON dynstat_salt_max             =   3.4700000000000E+01
(PID.TID 0000.0001) %MON dynstat_salt_min             =   3.4000000000000E+01
(PID.TID 0000.0001) %MON dynstat_salt_mean            =   3.4498693725823E+01
(PID.TID 0000.0001) %MON dynstat_salt_sd              =   2.7608867361899E-01
(PID.TID 0000.0001) %MON dynstat_salt_del2            =   3.7030385875815E-06
(PID.TID 0000.0001) %MON advcfl_uvel_max              =   9.7475339293005E-03
(PID.TID 0000.0001) %MON advcfl_vvel_max              =   4.8716563487066E-03
(PID.TID 0000.0001) %MON advcfl_wvel_max              =   1.4018315537907E-02
(PID.TID 0000.0001) %MON advcfl_W_hf_max              =   1.4018315537907E-02
(PID.TID 0000.0001) %MON pe_b_mean                    =  -8.2858214108058E-01
(PID.TID 0000.0001) %MON ke_max                       =   4.1688448063013E-03
(PID.TID 0000.0001) %MON ke_mean                      =   5.2091493022117E-06
(PID.TID 0000.0001) %MON ke_vol                       =   4.2724670484633E+12
(PID.TID 0000.0001) // =======================================================
(PID.TID 0000.0001) // End MONITOR dynamic field statistics
(PID.TID 0000.0001) // =======================================================
(PID.TID 0000.0001) // =======================================================
(PID.TID 0000.0001) // Begin OBCS MONITOR field statistics
(PID.TID 0000.0001) // =======================================================
(PID.TID 0000.0001) %MON obc_N_vVel_max               =   1.5064332620197E-05
(PID.TID 0000.0001) %MON obc_N_vVel_min               =   1.5064332620196E-05
(PID.TID 0000.0001) %MON obc_N_vVel_mean              =   1.5064332620196E-05
(PID.TID 0000.0001) %MON obc_N_vVel_sd                =   3.9382275817135E-12
(PID.TID 0000.0001) %MON obc_N_vVel_Int               =   9.9424595293296E+02
(PID.TID 0000.0001) // =======================================================
(PID.TID 0000.0001) // End OBCS MONITOR field statistics
(PID.TID 0000.0001) // =======================================================
 cg2d: Sum(rhs),rhsMax =   4.50108534214911E+00  2.99986105483047E+02
(PID.TID 0000.0001)      cg2d_init_res =   1.55852300399621E-05
(PID.TID 0000.0001)      cg2d_iters(min,last) =      -1      86
(PID.TID 0000.0001)      cg2d_last_res =   9.47068502889015E-12
(PID.TID 0000.0001) // =======================================================
(PID.TID 0000.0001) // Begin MONITOR dynamic field statistics
(PID.TID 0000.0001) // =======================================================
(PID.TID 0000.0001) %MON time_tsnumber                =                  1714
(PID.TID 0000.0001) %MON time_secondsf                =   1.7140000000000E+05
(PID.TID 0000.0001) %MON dynstat_eta_max              =   5.8212507025900E+00
(PID.TID 0000.0001) %MON dynstat_eta_min              =  -1.4194542618884E+01
(PID.TID 0000.0001) %MON dynstat_eta_mean             =  -2.5004871522929E+00
(PID.TID 0000.0001) %MON dynstat_eta_sd               =   4.9490697587137E+00
(PID.TID 0000.0001) %MON dynstat_eta_del2             =   2.0718137161978E-01
(PID.TID 0000.0001) %MON dynstat_uvel_max             =   2.2427766415451E-02
(PID.TID 0000.0001) %MON dynstat_uvel_min             =  -9.7652905307957E-02
(PID.TID 0000.0001) %MON dynstat_uvel_mean            =  -9.8766048505220E-08
(PID.TID 0000.0001) %MON dynstat_uvel_sd              =   2.9075914895287E-03
(PID.TID 0000.0001) %MON dynstat_uvel_del2            =   4.8726203467783E-06
(PID.TID 0000.0001) %MON dynstat_vvel_max             =   4.8749687445128E-02
(PID.TID 0000.0001) %MON dynstat_vvel_min             =  -3.5314976019610E-02
(PID.TID 0000.0001) %MON dynstat_vvel_mean            =   1.5416590551573E-05
(PID.TID 0000.0001) %MON dynstat_vvel_sd              =   1.4728450279993E-03
(PID.TID 0000.0001) %MON dynstat_vvel_del2            =   3.0720017034777E-06
(PID.TID 0000.0001) %MON dynstat_wvel_max             =   2.8058421876562E-03
(PID.TID 0000.0001) %MON dynstat_wvel_min             =  -2.6675393139148E-03
(PID.TID 0000.0001) %MON dynstat_wvel_mean            =   7.8131149341835E-09
(PID.TID 0000.0001) %MON dynstat_wvel_sd              =   5.2554803907430E-05
(PID.TID 0000.0001) %MON dynstat_wvel_del2            =   1.9946260874367E-07
(PID.TID 0000.0001) %MON dynstat_theta_max            =   1.2000000000000E+00
(PID.TID 0000.0001) %MON dynstat_theta_min            =  -1.0000000000000E+00
(PID.TID 0000.0001) %MON dynstat_theta_mean           =   5.6769702799012E-01
(PID.TID 0000.0001) %MON dynstat_theta_sd             =   8.6785125593667E-01
(PID.TID 0000.0001) %MON dynstat_theta_del2           =   9.3468772798896E-06
(PID.TID 0000.0001) %MON dynstat_salt_max             =   3.4700000000000E+01
(PID.TID 0000.0001) %MON dynstat_salt_min             =   3.4000000000000E+01
(PID.TID 0000.0001) %MON dynstat_salt_mean            =   3.4498692691388E+01
(PID.TID 0000.0001) %MON dynstat_salt_sd              =   2.7608821404533E-01
(PID.TID 0000.0001) %MON dynstat_salt_del2            =   3.7089321743431E-06
(PID.TID 0000.0001) %MON advcfl_uvel_max              =   9.7652905307957E-03
(PID.TID 0000.0001) %MON advcfl_vvel_max              =   4.8749687445128E-03
(PID.TID 0000.0001) %MON advcfl_wvel_max              =   1.4029210938281E-02
(PID.TID 0000.0001) %MON advcfl_W_hf_max              =   1.4029210938281E-02
(PID.TID 0000.0001) %MON pe_b_mean                    =  -8.2857954603332E-01
(PID.TID 0000.0001) %MON ke_max                       =   4.1825056367702E-03
(PID.TID 0000.0001) %MON ke_mean                      =   5.2279597388677E-06
(PID.TID 0000.0001) %MON ke_vol                       =   4.2724670772947E+12
(PID.TID 0000.0001) // =======================================================
(PID.TID 0000.0001) // End MONITOR dynamic field statistics
(PID.TID 0000.0001) // =======================================================
(PID.TID 0000.0001) // =======================================================
(PID.TID 0000.0001) // Begin OBCS MONITOR field statistics
(PID.TID 0000.0001) // =======================================================
(PID.TID 0000.0001) %MON obc_N_vVel_max               =   1.5064210081541E-05
(PID.TID 0000.0001) %MON obc_N_vVel_min               =   1.5064210081541E-05
(PID.TID 0000.0001) %MON obc_N_vVel_mean              =   1.5064210081541E-05
(PID.TID 0000.0001) %MON obc_N_vVel_sd                =  -9.4867276502175E-24
(PID.TID 0000.0001) %MON obc_N_vVel_Int               =   9.9423786538171E+02
(PID.TID 0000.0001) // =======================================================
(PID.TID 0000.0001) // End OBCS MONITOR field statistics
(PID.TID 0000.0001) // =======================================================
 cg2d: Sum(rhs),rhsMax =   4.50107514596202E+00  2.99986195116610E+02
(PID.TID 0000.0001)      cg2d_init_res =   1.56059644372705E-05
(PID.TID 0000.0001)      cg2d_iters(min,last) =      -1      86
(PID.TID 0000.0001)      cg2d_last_res =   9.49757126752478E-12
(PID.TID 0000.0001) // =======================================================
(PID.TID 0000.0001) // Begin MONITOR dynamic field statistics
(PID.TID 0000.0001) // =======================================================
(PID.TID 0000.0001) %MON time_tsnumber                =                  1715
(PID.TID 0000.0001) %MON time_secondsf                =   1.7150000000000E+05
(PID.TID 0000.0001) %MON dynstat_eta_max              =   5.8213950987306E+00
(PID.TID 0000.0001) %MON dynstat_eta_min              =  -1.4194564806829E+01
(PID.TID 0000.0001) %MON dynstat_eta_mean             =  -2.5004822351316E+00
(PID.TID 0000.0001) %MON dynstat_eta_sd               =   4.9490689753972E+00
(PID.TID 0000.0001) %MON dynstat_eta_del2             =   2.0718144993793E-01
(PID.TID 0000.0001) %MON dynstat_uvel_max             =   2.2469859366373E-02
(PID.TID 0000.0001) %MON dynstat_uvel_min             =  -9.7830503371032E-02
(PID.TID 0000.0001) %MON dynstat_uvel_mean            =  -9.8932803104623E-08
(PID.TID 0000.0001) %MON dynstat_uvel_sd              =   2.9128513184673E-03
(PID.TID 0000.0001) %MON dynstat_uvel_del2            =   4.8834805835845E-06
(PID.TID 0000.0001) %MON dynstat_vvel_max             =   4.8782736787163E-02
(PID.TID 0000.0001) %MON dynstat_vvel_min             =  -3.5378692532650E-02
(PID.TID 0000.0001) %MON dynstat_vvel_mean            =   1.5417405566271E-05
(PID.TID 0000.0001) %MON dynstat_vvel_sd              =   1.4754637873549E-03
(PID.TID 0000.0001) %MON dynstat_vvel_del2            =   3.0775681415065E-06
(PID.TID 0000.0001) %MON dynstat_wvel_max             =   2.8080167402379E-03
(PID.TID 0000.0001) %MON dynstat_wvel_min             =  -2.6682857686925E-03
(PID.TID 0000.0001) %MON dynstat_wvel_mean            =   7.8208217605646E-09
(PID.TID 0000.0001) %MON dynstat_wvel_sd              =   5.2632348578575E-05
(PID.TID 0000.0001) %MON dynstat_wvel_del2            =   1.9972951880363E-07
(PID.TID 0000.0001) %MON dynstat_theta_max            =   1.2000000000000E+00
(PID.TID 0000.0001) %MON dynstat_theta_min            =  -1.0000000000000E+00
(PID.TID 0000.0001) %MON dynstat_theta_mean           =   5.6769443988806E-01
(PID.TID 0000.0001) %MON dynstat_theta_sd             =   8.6785002244978E-01
(PID.TID 0000.0001) %MON dynstat_theta_del2           =   9.3616308714286E-06
(PID.TID 0000.0001) %MON dynstat_salt_max             =   3.4700000000000E+01
(PID.TID 0000.0001) %MON dynstat_salt_min             =   3.4000000000000E+01
(PID.TID 0000.0001) %MON dynstat_salt_mean            =   3.4498691655431E+01
(PID.TID 0000.0001) %MON dynstat_salt_sd              =   2.7608775403058E-01
(PID.TID 0000.0001) %MON dynstat_salt_del2            =   3.7148307688159E-06
(PID.TID 0000.0001) %MON advcfl_uvel_max              =   9.7830503371032E-03
(PID.TID 0000.0001) %MON advcfl_vvel_max              =   4.8782736787163E-03
(PID.TID 0000.0001) %MON advcfl_wvel_max              =   1.4040083701190E-02
(PID.TID 0000.0001) %MON advcfl_W_hf_max              =   1.4040083701190E-02
(PID.TID 0000.0001) %MON pe_b_mean                    =  -8.2857694020340E-01
(PID.TID 0000.0001) %MON ke_max                       =   4.1961911313292E-03
(PID.TID 0000.0001) %MON ke_mean                      =   5.2468238794979E-06
(PID.TID 0000.0001) %MON ke_vol                       =   4.2724671063154E+12
(PID.TID 0000.0001) // =======================================================
(PID.TID 0000.0001) // End MONITOR dynamic field statistics
(PID.TID 0000.0001) // =======================================================
(PID.TID 0000.0001) // =======================================================
(PID.TID 0000.0001) // Begin OBCS MONITOR field statistics
(PID.TID 0000.0001) // =======================================================
(PID.TID 0000.0001) %MON obc_N_vVel_max               =   1.5064393880203E-05
(PID.TID 0000.0001) %MON obc_N_vVel_min               =   1.5064393880203E-05
(PID.TID 0000.0001) %MON obc_N_vVel_mean              =   1.5064393880203E-05
(PID.TID 0000.0001) %MON obc_N_vVel_sd                =  -2.2230478962363E-24
(PID.TID 0000.0001) %MON obc_N_vVel_Int               =   9.9424999609341E+02
(PID.TID 0000.0001) // =======================================================
(PID.TID 0000.0001) // End OBCS MONITOR field statistics
(PID.TID 0000.0001) // =======================================================
 cg2d: Sum(rhs),rhsMax =   4.50106489203038E+00  2.99986284869001E+02
(PID.TID 0000.0001)      cg2d_init_res =   1.56267971208117E-05
(PID.TID 0000.0001)      cg2d_iters(min,last) =      -1      86
(PID.TID 0000.0001)      cg2d_last_res =   9.55035920668808E-12
(PID.TID 0000.0001) // =======================================================
(PID.TID 0000.0001) // Begin MONITOR dynamic field statistics
(PID.TID 0000.0001) // =======================================================
(PID.TID 0000.0001) %MON time_tsnumber                =                  1716
(PID.TID 0000.0001) %MON time_secondsf                =   1.7160000000000E+05
(PID.TID 0000.0001) %MON dynstat_eta_max              =   5.8215397612815E+00
(PID.TID 0000.0001) %MON dynstat_eta_min              =  -1.4194586981401E+01
(PID.TID 0000.0001) %MON dynstat_eta_mean             =  -2.5004772868787E+00
(PID.TID 0000.0001) %MON dynstat_eta_sd               =   4.9490681831911E+00
(PID.TID 0000.0001) %MON dynstat_eta_del2             =   2.0718152834321E-01
(PID.TID 0000.0001) %MON dynstat_uvel_max             =   2.2512002482181E-02
(PID.TID 0000.0001) %MON dynstat_uvel_min             =  -9.8008132260558E-02
(PID.TID 0000.0001) %MON dynstat_uvel_mean            =  -9.9151298057038E-08
(PID.TID 0000.0001) %MON dynstat_uvel_sd              =   2.9181160417123E-03
(PID.TID 0000.0001) %MON dynstat_uvel_del2            =   4.8943582170034E-06
(PID.TID 0000.0001) %MON dynstat_vvel_max             =   4.8815711538988E-02
(PID.TID 0000.0001) %MON dynstat_vvel_min             =  -3.5442334557258E-02
(PID.TID 0000.0001) %MON dynstat_vvel_mean            =   1.5418714842580E-05
(PID.TID 0000.0001) %MON dynstat_vvel_sd              =   1.4780864726381E-03
(PID.TID 0000.0001) %MON dynstat_vvel_del2            =   3.0831437562878E-06
(PID.TID 0000.0001) %MON dynstat_wvel_max             =   2.8101867656596E-03
(PID.TID 0000.0001) %MON dynstat_wvel_min             =  -2.6690069661533E-03
(PID.TID 0000.0001) %MON dynstat_wvel_mean            =   7.8293662706089E-09
(PID.TID 0000.0001) %MON dynstat_wvel_sd              =   5.2710490196290E-05
(PID.TID 0000.0001) %MON dynstat_wvel_del2            =   1.9999931622003E-07
(PID.TID 0000.0001) %MON dynstat_theta_max            =   1.2000000000000E+00
(PID.TID 0000.0001) %MON dynstat_theta_min            =  -1.0000000000000E+00
(PID.TID 0000.0001) %MON dynstat_theta_mean           =   5.6769184798461E-01
(PID.TID 0000.0001) %MON dynstat_theta_sd             =   8.6784878762241E-01
(PID.TID 0000.0001) %MON dynstat_theta_del2           =   9.3763959486588E-06
(PID.TID 0000.0001) %MON dynstat_salt_max             =   3.4700000000000E+01
(PID.TID 0000.0001) %MON dynstat_salt_min             =   3.4000000000000E+01
(PID.TID 0000.0001) %MON dynstat_salt_mean            =   3.4498690617953E+01
(PID.TID 0000.0001) %MON dynstat_salt_sd              =   2.7608729357437E-01
(PID.TID 0000.0001) %MON dynstat_salt_del2            =   3.7207343810156E-06
(PID.TID 0000.0001) %MON advcfl_uvel_max              =   9.8008132260558E-03
(PID.TID 0000.0001) %MON advcfl_vvel_max              =   4.8815711538988E-03
(PID.TID 0000.0001) %MON advcfl_wvel_max              =   1.4050933828298E-02
(PID.TID 0000.0001) %MON advcfl_W_hf_max              =   1.4050933828298E-02
(PID.TID 0000.0001) %MON pe_b_mean                    =  -8.2857432371050E-01
(PID.TID 0000.0001) %MON ke_max                       =   4.2099012671697E-03
(PID.TID 0000.0001) %MON ke_mean                      =   5.2657418042610E-06
(PID.TID 0000.0001) %MON ke_vol                       =   4.2724671355233E+12
(PID.TID 0000.0001) // =======================================================
(PID.TID 0000.0001) // End MONITOR dynamic field statistics
(PID.TID 0000.0001) // =======================================================
(PID.TID 0000.0001) // =======================================================
(PID.TID 0000.0001) // Begin OBCS MONITOR field statistics
(PID.TID 0000.0001) // =======================================================
(PID.TID 0000.0001) %MON obc_N_vVel_max               =   1.5064993290518E-05
(PID.TID 0000.0001) %MON obc_N_vVel_min               =   1.5064993290518E-05
(PID.TID 0000.0001) %MON obc_N_vVel_mean              =   1.5064993290518E-05
(PID.TID 0000.0001) %MON obc_N_vVel_sd                =   5.0485148929453E-12
(PID.TID 0000.0001) %MON obc_N_vVel_Int               =   9.9428955717416E+02
(PID.TID 0000.0001) // =======================================================
(PID.TID 0000.0001) // End OBCS MONITOR field statistics
(PID.TID 0000.0001) // =======================================================
 cg2d: Sum(rhs),rhsMax =   4.50105458127888E+00  2.99986374742170E+02
(PID.TID 0000.0001)      cg2d_init_res =   1.56477154877257E-05
(PID.TID 0000.0001)      cg2d_iters(min,last) =      -1      86
(PID.TID 0000.0001)      cg2d_last_res =   9.61372106824708E-12
(PID.TID 0000.0001) // =======================================================
(PID.TID 0000.0001) // Begin MONITOR dynamic field statistics
(PID.TID 0000.0001) // =======================================================
(PID.TID 0000.0001) %MON time_tsnumber                =                  1717
(PID.TID 0000.0001) %MON time_secondsf                =   1.7170000000000E+05
(PID.TID 0000.0001) %MON dynstat_eta_max              =   5.8216846882667E+00
(PID.TID 0000.0001) %MON dynstat_eta_min              =  -1.4194609143912E+01
(PID.TID 0000.0001) %MON dynstat_eta_mean             =  -2.5004723080639E+00
(PID.TID 0000.0001) %MON dynstat_eta_sd               =   4.9490673823236E+00
(PID.TID 0000.0001) %MON dynstat_eta_del2             =   2.0718160683566E-01
(PID.TID 0000.0001) %MON dynstat_uvel_max             =   2.2554195678850E-02
(PID.TID 0000.0001) %MON dynstat_uvel_min             =  -9.8185790821056E-02
(PID.TID 0000.0001) %MON dynstat_uvel_mean            =  -9.9348860955647E-08
(PID.TID 0000.0001) %MON dynstat_uvel_sd              =   2.9233856518924E-03
(PID.TID 0000.0001) %MON dynstat_uvel_del2            =   4.9052532334373E-06
(PID.TID 0000.0001) %MON dynstat_vvel_max             =   4.8848611765361E-02
(PID.TID 0000.0001) %MON dynstat_vvel_min             =  -3.5505900387355E-02
(PID.TID 0000.0001) %MON dynstat_vvel_mean            =   1.5420556689536E-05
(PID.TID 0000.0001) %MON dynstat_vvel_sd              =   1.4807130732440E-03
(PID.TID 0000.0001) %MON dynstat_vvel_del2            =   3.0887284568351E-06
(PID.TID 0000.0001) %MON dynstat_wvel_max             =   2.8123522638644E-03
(PID.TID 0000.0001) %MON dynstat_wvel_min             =  -2.6697029093792E-03
(PID.TID 0000.0001) %MON dynstat_wvel_mean            =   7.8382199430625E-09
(PID.TID 0000.0001) %MON dynstat_wvel_sd              =   5.2789156647082E-05
(PID.TID 0000.0001) %MON dynstat_wvel_del2            =   2.0027175916148E-07
(PID.TID 0000.0001) %MON dynstat_theta_max            =   1.2000000000000E+00
(PID.TID 0000.0001) %MON dynstat_theta_min            =  -1.0000000000000E+00
(PID.TID 0000.0001) %MON dynstat_theta_mean           =   5.6768925227947E-01
(PID.TID 0000.0001) %MON dynstat_theta_sd             =   8.6784755145266E-01
(PID.TID 0000.0001) %MON dynstat_theta_del2           =   9.3911725980508E-06
(PID.TID 0000.0001) %MON dynstat_salt_max             =   3.4700000000000E+01
(PID.TID 0000.0001) %MON dynstat_salt_min             =   3.4000000000000E+01
(PID.TID 0000.0001) %MON dynstat_salt_mean            =   3.4498689578953E+01
(PID.TID 0000.0001) %MON dynstat_salt_sd              =   2.7608683267664E-01
(PID.TID 0000.0001) %MON dynstat_salt_del2            =   3.7266431755566E-06
(PID.TID 0000.0001) %MON advcfl_uvel_max              =   9.8185790821056E-03
(PID.TID 0000.0001) %MON advcfl_vvel_max              =   4.8848611765361E-03
(PID.TID 0000.0001) %MON advcfl_wvel_max              =   1.4061761319322E-02
(PID.TID 0000.0001) %MON advcfl_W_hf_max              =   1.4061761319322E-02
(PID.TID 0000.0001) %MON pe_b_mean                    =  -8.2857169667887E-01
(PID.TID 0000.0001) %MON ke_max                       =   4.2236360260415E-03
(PID.TID 0000.0001) %MON ke_mean                      =   5.2847135835664E-06
(PID.TID 0000.0001) %MON ke_vol                       =   4.2724671649159E+12
(PID.TID 0000.0001) // =======================================================
(PID.TID 0000.0001) // End MONITOR dynamic field statistics
(PID.TID 0000.0001) // =======================================================
(PID.TID 0000.0001) // =======================================================
(PID.TID 0000.0001) // Begin OBCS MONITOR field statistics
(PID.TID 0000.0001) // =======================================================
(PID.TID 0000.0001) %MON obc_N_vVel_max               =   1.5066089234240E-05
(PID.TID 0000.0001) %MON obc_N_vVel_min               =   1.5066089234239E-05
(PID.TID 0000.0001) %MON obc_N_vVel_mean              =   1.5066089234239E-05
(PID.TID 0000.0001) %MON obc_N_vVel_sd                =   3.1505820653708E-12
(PID.TID 0000.0001) %MON obc_N_vVel_Int               =   9.9436188945979E+02
(PID.TID 0000.0001) // =======================================================
(PID.TID 0000.0001) // End OBCS MONITOR field statistics
(PID.TID 0000.0001) // =======================================================
 cg2d: Sum(rhs),rhsMax =   4.50104421474008E+00  2.99986464736682E+02
(PID.TID 0000.0001)      cg2d_init_res =   1.56687121740095E-05
(PID.TID 0000.0001)      cg2d_iters(min,last) =      -1      86
(PID.TID 0000.0001)      cg2d_last_res =   9.67321235776911E-12
(PID.TID 0000.0001) // =======================================================
(PID.TID 0000.0001) // Begin MONITOR dynamic field statistics
(PID.TID 0000.0001) // =======================================================
(PID.TID 0000.0001) %MON time_tsnumber                =                  1718
(PID.TID 0000.0001) %MON time_secondsf                =   1.7180000000000E+05
(PID.TID 0000.0001) %MON dynstat_eta_max              =   5.8218298784649E+00
(PID.TID 0000.0001) %MON dynstat_eta_min              =  -1.4194631295880E+01
(PID.TID 0000.0001) %MON dynstat_eta_mean             =  -2.5004672992655E+00
(PID.TID 0000.0001) %MON dynstat_eta_sd               =   4.9490665730083E+00
(PID.TID 0000.0001) %MON dynstat_eta_del2             =   2.0718168541555E-01
(PID.TID 0000.0001) %MON dynstat_uvel_max             =   2.2596438858738E-02
(PID.TID 0000.0001) %MON dynstat_uvel_min             =  -9.8363477956418E-02
(PID.TID 0000.0001) %MON dynstat_uvel_mean            =  -9.9464283010672E-08
(PID.TID 0000.0001) %MON dynstat_uvel_sd              =   2.9286601418725E-03
(PID.TID 0000.0001) %MON dynstat_uvel_del2            =   4.9161656194525E-06
(PID.TID 0000.0001) %MON dynstat_vvel_max             =   4.8881437544797E-02
(PID.TID 0000.0001) %MON dynstat_vvel_min             =  -3.5569388303006E-02
(PID.TID 0000.0001) %MON dynstat_vvel_mean            =   1.5422943504028E-05
(PID.TID 0000.0001) %MON dynstat_vvel_sd              =   1.4833435725226E-03
(PID.TID 0000.0001) %MON dynstat_vvel_del2            =   3.0943221177244E-06
(PID.TID 0000.0001) %MON dynstat_wvel_max             =   2.8145132347811E-03
(PID.TID 0000.0001) %MON dynstat_wvel_min             =  -2.6703736038503E-03
(PID.TID 0000.0001) %MON dynstat_wvel_mean            =   7.8469865613047E-09
(PID.TID 0000.0001) %MON dynstat_wvel_sd              =   5.2868245077494E-05
(PID.TID 0000.0001) %MON dynstat_wvel_del2            =   2.0054645032060E-07
(PID.TID 0000.0001) %MON dynstat_theta_max            =   1.2000000000000E+00
(PID.TID 0000.0001) %MON dynstat_theta_min            =  -1.0000000000000E+00
(PID.TID 0000.0001) %MON dynstat_theta_mean           =   5.6768665277242E-01
(PID.TID 0000.0001) %MON dynstat_theta_sd             =   8.6784631393942E-01
(PID.TID 0000.0001) %MON dynstat_theta_del2           =   9.4059609496797E-06
(PID.TID 0000.0001) %MON dynstat_salt_max             =   3.4700000000000E+01
(PID.TID 0000.0001) %MON dynstat_salt_min             =   3.4000000000000E+01
(PID.TID 0000.0001) %MON dynstat_salt_mean            =   3.4498688538432E+01
(PID.TID 0000.0001) %MON dynstat_salt_sd              =   2.7608637133706E-01
(PID.TID 0000.0001) %MON dynstat_salt_del2            =   3.7325569163838E-06
(PID.TID 0000.0001) %MON advcfl_uvel_max              =   9.8363477956418E-03
(PID.TID 0000.0001) %MON advcfl_vvel_max              =   4.8881437544797E-03
(PID.TID 0000.0001) %MON advcfl_wvel_max              =   1.4072566173905E-02
(PID.TID 0000.0001) %MON advcfl_W_hf_max              =   1.4072566173905E-02
(PID.TID 0000.0001) %MON pe_b_mean                    =  -8.2856905923214E-01
(PID.TID 0000.0001) %MON ke_max                       =   4.2373953938532E-03
(PID.TID 0000.0001) %MON ke_mean                      =   5.3037392789956E-06
(PID.TID 0000.0001) %MON ke_vol                       =   4.2724671944901E+12
(PID.TID 0000.0001) // =======================================================
(PID.TID 0000.0001) // End MONITOR dynamic field statistics
(PID.TID 0000.0001) // =======================================================
(PID.TID 0000.0001) // =======================================================
(PID.TID 0000.0001) // Begin OBCS MONITOR field statistics
(PID.TID 0000.0001) // =======================================================
(PID.TID 0000.0001) %MON obc_N_vVel_max               =   1.5067725342868E-05
(PID.TID 0000.0001) %MON obc_N_vVel_min               =   1.5067725342868E-05
(PID.TID 0000.0001) %MON obc_N_vVel_mean              =   1.5067725342868E-05
(PID.TID 0000.0001) %MON obc_N_vVel_sd                =   1.6157935537594E-12
(PID.TID 0000.0001) %MON obc_N_vVel_Int               =   9.9446987262930E+02
(PID.TID 0000.0001) // =======================================================
(PID.TID 0000.0001) // End OBCS MONITOR field statistics
(PID.TID 0000.0001) // =======================================================
 cg2d: Sum(rhs),rhsMax =   4.50103379347314E+00  2.99986554851907E+02
(PID.TID 0000.0001)      cg2d_init_res =   1.56897273872684E-05
(PID.TID 0000.0001)      cg2d_iters(min,last) =      -1      86
(PID.TID 0000.0001)      cg2d_last_res =   9.71835437898427E-12
(PID.TID 0000.0001) // =======================================================
(PID.TID 0000.0001) // Begin MONITOR dynamic field statistics
(PID.TID 0000.0001) // =======================================================
(PID.TID 0000.0001) %MON time_tsnumber                =                  1719
(PID.TID 0000.0001) %MON time_secondsf                =   1.7190000000000E+05
(PID.TID 0000.0001) %MON dynstat_eta_max              =   5.8219753313401E+00
(PID.TID 0000.0001) %MON dynstat_eta_min              =  -1.4194653438752E+01
(PID.TID 0000.0001) %MON dynstat_eta_mean             =  -2.5004622610667E+00
(PID.TID 0000.0001) %MON dynstat_eta_sd               =   4.9490657554127E+00
(PID.TID 0000.0001) %MON dynstat_eta_del2             =   2.0718176408242E-01
(PID.TID 0000.0001) %MON dynstat_uvel_max             =   2.2638731913728E-02
(PID.TID 0000.0001) %MON dynstat_uvel_min             =  -9.8541192609501E-02
(PID.TID 0000.0001) %MON dynstat_uvel_mean            =  -9.9462110235266E-08
(PID.TID 0000.0001) %MON dynstat_uvel_sd              =   2.9339395045242E-03
(PID.TID 0000.0001) %MON dynstat_uvel_del2            =   4.9270953608233E-06
(PID.TID 0000.0001) %MON dynstat_vvel_max             =   4.8914188949267E-02
(PID.TID 0000.0001) %MON dynstat_vvel_min             =  -3.5632796570296E-02
(PID.TID 0000.0001) %MON dynstat_vvel_mean            =   1.5425861209029E-05
(PID.TID 0000.0001) %MON dynstat_vvel_sd              =   1.4859779494298E-03
(PID.TID 0000.0001) %MON dynstat_vvel_del2            =   3.0999245846547E-06
(PID.TID 0000.0001) %MON dynstat_wvel_max             =   2.8166696786121E-03
(PID.TID 0000.0001) %MON dynstat_wvel_min             =  -2.6710190576596E-03
(PID.TID 0000.0001) %MON dynstat_wvel_mean            =   7.8554295753154E-09
(PID.TID 0000.0001) %MON dynstat_wvel_sd              =   5.2947628334713E-05
(PID.TID 0000.0001) %MON dynstat_wvel_del2            =   2.0082286387243E-07
(PID.TID 0000.0001) %MON dynstat_theta_max            =   1.2000000000000E+00
(PID.TID 0000.0001) %MON dynstat_theta_min            =  -1.0000000000000E+00
(PID.TID 0000.0001) %MON dynstat_theta_mean           =   5.6768404946324E-01
(PID.TID 0000.0001) %MON dynstat_theta_sd             =   8.6784507506822E-01
(PID.TID 0000.0001) %MON dynstat_theta_del2           =   9.4207632710435E-06
(PID.TID 0000.0001) %MON dynstat_salt_max             =   3.4700000000000E+01
(PID.TID 0000.0001) %MON dynstat_salt_min             =   3.4000000000000E+01
(PID.TID 0000.0001) %MON dynstat_salt_mean            =   3.4498687496388E+01
(PID.TID 0000.0001) %MON dynstat_salt_sd              =   2.7608590955540E-01
(PID.TID 0000.0001) %MON dynstat_salt_del2            =   3.7384755156920E-06
(PID.TID 0000.0001) %MON advcfl_uvel_max              =   9.8541192609501E-03
(PID.TID 0000.0001) %MON advcfl_vvel_max              =   4.8914188949267E-03
(PID.TID 0000.0001) %MON advcfl_wvel_max              =   1.4083348393061E-02
(PID.TID 0000.0001) %MON advcfl_W_hf_max              =   1.4083348393061E-02
(PID.TID 0000.0001) %MON pe_b_mean                    =  -8.2856641148825E-01
(PID.TID 0000.0001) %MON ke_max                       =   4.2511793591997E-03
(PID.TID 0000.0001) %MON ke_mean                      =   5.3228189450121E-06
(PID.TID 0000.0001) %MON ke_vol                       =   4.2724672242424E+12
(PID.TID 0000.0001) // =======================================================
(PID.TID 0000.0001) // End MONITOR dynamic field statistics
(PID.TID 0000.0001) // =======================================================
(PID.TID 0000.0001) // =======================================================
(PID.TID 0000.0001) // Begin OBCS MONITOR field statistics
(PID.TID 0000.0001) // =======================================================
(PID.TID 0000.0001) %MON obc_N_vVel_max               =   1.5069906001787E-05
(PID.TID 0000.0001) %MON obc_N_vVel_min               =   1.5069906001786E-05
(PID.TID 0000.0001) %MON obc_N_vVel_mean              =   1.5069906001787E-05
(PID.TID 0000.0001) %MON obc_N_vVel_sd                =  -1.2381859794153E-23
(PID.TID 0000.0001) %MON obc_N_vVel_Int               =   9.9461379611791E+02
(PID.TID 0000.0001) // =======================================================
(PID.TID 0000.0001) // End OBCS MONITOR field statistics
(PID.TID 0000.0001) // =======================================================
 cg2d: Sum(rhs),rhsMax =   4.50102331849256E+00  2.99986645086039E+02
(PID.TID 0000.0001)      cg2d_init_res =   1.57106254325762E-05
(PID.TID 0000.0001)      cg2d_iters(min,last) =      -1      86
(PID.TID 0000.0001)      cg2d_last_res =   9.74434059286340E-12
(PID.TID 0000.0001) // =======================================================
(PID.TID 0000.0001) // Begin MONITOR dynamic field statistics
(PID.TID 0000.0001) // =======================================================
(PID.TID 0000.0001) %MON time_tsnumber                =                  1720
(PID.TID 0000.0001) %MON time_secondsf                =   1.7200000000000E+05
(PID.TID 0000.0001) %MON dynstat_eta_max              =   5.8221210468392E+00
(PID.TID 0000.0001) %MON dynstat_eta_min              =  -1.4194675573685E+01
(PID.TID 0000.0001) %MON dynstat_eta_mean             =  -2.5004571940160E+00
(PID.TID 0000.0001) %MON dynstat_eta_sd               =   4.9490649296539E+00
(PID.TID 0000.0001) %MON dynstat_eta_del2             =   2.0718184283493E-01
(PID.TID 0000.0001) %MON dynstat_uvel_max             =   2.2681074723808E-02
(PID.TID 0000.0001) %MON dynstat_uvel_min             =  -9.8718933741401E-02
(PID.TID 0000.0001) %MON dynstat_uvel_mean            =  -9.9338419628135E-08
(PID.TID 0000.0001) %MON dynstat_uvel_sd              =   2.9392237320525E-03
(PID.TID 0000.0001) %MON dynstat_uvel_del2            =   4.9380424441574E-06
(PID.TID 0000.0001) %MON dynstat_vvel_max             =   4.8946866031936E-02
(PID.TID 0000.0001) %MON dynstat_vvel_min             =  -3.5696123420355E-02
(PID.TID 0000.0001) %MON dynstat_vvel_mean            =   1.5429272515744E-05
(PID.TID 0000.0001) %MON dynstat_vvel_sd              =   1.4886161813078E-03
(PID.TID 0000.0001) %MON dynstat_vvel_del2            =   3.1055356928763E-06
(PID.TID 0000.0001) %MON dynstat_wvel_max             =   2.8188215960192E-03
(PID.TID 0000.0001) %MON dynstat_wvel_min             =  -2.6716392829308E-03
(PID.TID 0000.0001) %MON dynstat_wvel_mean            =   7.8634651233799E-09
(PID.TID 0000.0001) %MON dynstat_wvel_sd              =   5.3027162547106E-05
(PID.TID 0000.0001) %MON dynstat_wvel_del2            =   2.0110038124138E-07
(PID.TID 0000.0001) %MON dynstat_theta_max            =   1.2000000000000E+00
(PID.TID 0000.0001) %MON dynstat_theta_min            =  -1.0000000000000E+00
(PID.TID 0000.0001) %MON dynstat_theta_mean           =   5.6768144235161E-01
(PID.TID 0000.0001) %MON dynstat_theta_sd             =   8.6784383485080E-01
(PID.TID 0000.0001) %MON dynstat_theta_del2           =   9.4355777942936E-06
(PID.TID 0000.0001) %MON dynstat_salt_max             =   3.4700000000000E+01
(PID.TID 0000.0001) %MON dynstat_salt_min             =   3.4000000000000E+01
(PID.TID 0000.0001) %MON dynstat_salt_mean            =   3.4498686452821E+01
(PID.TID 0000.0001) %MON dynstat_salt_sd              =   2.7608544733173E-01
(PID.TID 0000.0001) %MON dynstat_salt_del2            =   3.7443992955614E-06
(PID.TID 0000.0001) %MON advcfl_uvel_max              =   9.8718933741401E-03
(PID.TID 0000.0001) %MON advcfl_vvel_max              =   4.8946866031936E-03
(PID.TID 0000.0001) %MON advcfl_wvel_max              =   1.4094107980096E-02
(PID.TID 0000.0001) %MON advcfl_W_hf_max              =   1.4094107980096E-02
(PID.TID 0000.0001) %MON pe_b_mean                    =  -8.2856375355519E-01
(PID.TID 0000.0001) %MON ke_max                       =   4.2649879120646E-03
(PID.TID 0000.0001) %MON ke_mean                      =   5.3419526311532E-06
(PID.TID 0000.0001) %MON ke_vol                       =   4.2724672541693E+12
(PID.TID 0000.0001) // =======================================================
(PID.TID 0000.0001) // End MONITOR dynamic field statistics
(PID.TID 0000.0001) // =======================================================
(PID.TID 0000.0001) // =======================================================
(PID.TID 0000.0001) // Begin OBCS MONITOR field statistics
(PID.TID 0000.0001) // =======================================================
(PID.TID 0000.0001) %MON obc_N_vVel_max               =   1.5072600400796E-05
(PID.TID 0000.0001) %MON obc_N_vVel_min               =   1.5072600400796E-05
(PID.TID 0000.0001) %MON obc_N_vVel_mean              =   1.5072600400796E-05
(PID.TID 0000.0001) %MON obc_N_vVel_sd                =  -1.0598251598336E-23
(PID.TID 0000.0001) %MON obc_N_vVel_Int               =   9.9479162645256E+02
(PID.TID 0000.0001) // =======================================================
(PID.TID 0000.0001) // End OBCS MONITOR field statistics
(PID.TID 0000.0001) // =======================================================
 cg2d: Sum(rhs),rhsMax =   4.50101279071021E+00  2.99986735436357E+02
(PID.TID 0000.0001)      cg2d_init_res =   1.57316852512684E-05
(PID.TID 0000.0001)      cg2d_iters(min,last) =      -1      86
(PID.TID 0000.0001)      cg2d_last_res =   9.75092601370133E-12
(PID.TID 0000.0001) // =======================================================
(PID.TID 0000.0001) // Begin MONITOR dynamic field statistics
(PID.TID 0000.0001) // =======================================================
(PID.TID 0000.0001) %MON time_tsnumber                =                  1721
(PID.TID 0000.0001) %MON time_secondsf                =   1.7210000000000E+05
(PID.TID 0000.0001) %MON dynstat_eta_max              =   5.8222670251978E+00
(PID.TID 0000.0001) %MON dynstat_eta_min              =  -1.4194697701436E+01
(PID.TID 0000.0001) %MON dynstat_eta_mean             =  -2.5004520985971E+00
(PID.TID 0000.0001) %MON dynstat_eta_sd               =   4.9490640958472E+00
(PID.TID 0000.0001) %MON dynstat_eta_del2             =   2.0718192167457E-01
(PID.TID 0000.0001) %MON dynstat_uvel_max             =   2.2723467167266E-02
(PID.TID 0000.0001) %MON dynstat_uvel_min             =  -9.8896700299772E-02
(PID.TID 0000.0001) %MON dynstat_uvel_mean            =  -9.9118292238297E-08
(PID.TID 0000.0001) %MON dynstat_uvel_sd              =   2.9445128164708E-03
(PID.TID 0000.0001) %MON dynstat_uvel_del2            =   4.9490068549535E-06
(PID.TID 0000.0001) %MON dynstat_vvel_max             =   4.8979468822457E-02
(PID.TID 0000.0001) %MON dynstat_vvel_min             =  -3.5759367092654E-02
(PID.TID 0000.0001) %MON dynstat_vvel_mean            =   1.5433122595020E-05
(PID.TID 0000.0001) %MON dynstat_vvel_sd              =   1.4912582439141E-03
(PID.TID 0000.0001) %MON dynstat_vvel_del2            =   3.1111552634160E-06
(PID.TID 0000.0001) %MON dynstat_wvel_max             =   2.8209689881623E-03
(PID.TID 0000.0001) %MON dynstat_wvel_min             =  -2.6722342947576E-03
(PID.TID 0000.0001) %MON dynstat_wvel_mean            =   7.8711245971729E-09
(PID.TID 0000.0001) %MON dynstat_wvel_sd              =   5.3106696170850E-05
(PID.TID 0000.0001) %MON dynstat_wvel_del2            =   2.0137832470768E-07
(PID.TID 0000.0001) %MON dynstat_theta_max            =   1.2000000000000E+00
(PID.TID 0000.0001) %MON dynstat_theta_min            =  -1.0000000000000E+00
(PID.TID 0000.0001) %MON dynstat_theta_mean           =   5.6767883143705E-01
(PID.TID 0000.0001) %MON dynstat_theta_sd             =   8.6784259328418E-01
(PID.TID 0000.0001) %MON dynstat_theta_del2           =   9.4504040410536E-06
(PID.TID 0000.0001) %MON dynstat_salt_max             =   3.4700000000000E+01
(PID.TID 0000.0001) %MON dynstat_salt_min             =   3.4000000000000E+01
(PID.TID 0000.0001) %MON dynstat_salt_mean            =   3.4498685407732E+01
(PID.TID 0000.0001) %MON dynstat_salt_sd              =   2.7608498466583E-01
(PID.TID 0000.0001) %MON dynstat_salt_del2            =   3.7503282458449E-06
(PID.TID 0000.0001) %MON advcfl_uvel_max              =   9.8896700299772E-03
(PID.TID 0000.0001) %MON advcfl_vvel_max              =   4.8979468822457E-03
(PID.TID 0000.0001) %MON advcfl_wvel_max              =   1.4104844940811E-02
(PID.TID 0000.0001) %MON advcfl_W_hf_max              =   1.4104844940811E-02
(PID.TID 0000.0001) %MON pe_b_mean                    =  -8.2856108552776E-01
(PID.TID 0000.0001) %MON ke_max                       =   4.2788210404324E-03
(PID.TID 0000.0001) %MON ke_mean                      =   5.3611403834896E-06
(PID.TID 0000.0001) %MON ke_vol                       =   4.2724672842675E+12
(PID.TID 0000.0001) // =======================================================
(PID.TID 0000.0001) // End MONITOR dynamic field statistics
(PID.TID 0000.0001) // =======================================================
(PID.TID 0000.0001) // =======================================================
(PID.TID 0000.0001) // Begin OBCS MONITOR field statistics
(PID.TID 0000.0001) // =======================================================
(PID.TID 0000.0001) %MON obc_N_vVel_max               =   1.5075750716931E-05
(PID.TID 0000.0001) %MON obc_N_vVel_min               =   1.5075750716931E-05
(PID.TID 0000.0001) %MON obc_N_vVel_mean              =   1.5075750716931E-05
(PID.TID 0000.0001) %MON obc_N_vVel_sd                =  -3.1277766912161E-24
(PID.TID 0000.0001) %MON obc_N_vVel_Int               =   9.9499954731745E+02
(PID.TID 0000.0001) // =======================================================
(PID.TID 0000.0001) // End OBCS MONITOR field statistics
(PID.TID 0000.0001) // =======================================================
 cg2d: Sum(rhs),rhsMax =   4.50100221089842E+00  2.99986825899469E+02
(PID.TID 0000.0001)      cg2d_init_res =   1.57527309503627E-05
(PID.TID 0000.0001)      cg2d_iters(min,last) =      -1      86
(PID.TID 0000.0001)      cg2d_last_res =   9.74267105895925E-12
(PID.TID 0000.0001) // =======================================================
(PID.TID 0000.0001) // Begin MONITOR dynamic field statistics
(PID.TID 0000.0001) // =======================================================
(PID.TID 0000.0001) %MON time_tsnumber                =                  1722
(PID.TID 0000.0001) %MON time_secondsf                =   1.7220000000000E+05
(PID.TID 0000.0001) %MON dynstat_eta_max              =   5.8224132667363E+00
(PID.TID 0000.0001) %MON dynstat_eta_min              =  -1.4194719822313E+01
(PID.TID 0000.0001) %MON dynstat_eta_mean             =  -2.5004469752109E+00
(PID.TID 0000.0001) %MON dynstat_eta_sd               =   4.9490632540495E+00
(PID.TID 0000.0001) %MON dynstat_eta_del2             =   2.0718200060141E-01
(PID.TID 0000.0001) %MON dynstat_uvel_max             =   2.2765909107811E-02
(PID.TID 0000.0001) %MON dynstat_uvel_min             =  -9.9074491214099E-02
(PID.TID 0000.0001) %MON dynstat_uvel_mean            =  -9.8846808455537E-08
(PID.TID 0000.0001) %MON dynstat_uvel_sd              =   2.9498067492300E-03
(PID.TID 0000.0001) %MON dynstat_uvel_del2            =   4.9599885794604E-06
(PID.TID 0000.0001) %MON dynstat_vvel_max             =   4.9011997327688E-02
(PID.TID 0000.0001) %MON dynstat_vvel_min             =  -3.5822525759743E-02
(PID.TID 0000.0001) %MON dynstat_vvel_mean            =   1.5437345296743E-05
(PID.TID 0000.0001) %MON dynstat_vvel_sd              =   1.4939041137466E-03
(PID.TID 0000.0001) %MON dynstat_vvel_del2            =   3.1167831216641E-06
(PID.TID 0000.0001) %MON dynstat_wvel_max             =   2.8231118566137E-03
(PID.TID 0000.0001) %MON dynstat_wvel_min             =  -2.6728041148501E-03
(PID.TID 0000.0001) %MON dynstat_wvel_mean            =   7.8785171116861E-09
(PID.TID 0000.0001) %MON dynstat_wvel_sd              =   5.3186078298983E-05
(PID.TID 0000.0001) %MON dynstat_wvel_del2            =   2.0165600400969E-07
(PID.TID 0000.0001) %MON dynstat_theta_max            =   1.2000000000000E+00
(PID.TID 0000.0001) %MON dynstat_theta_min            =  -1.0000000000000E+00
(PID.TID 0000.0001) %MON dynstat_theta_mean           =   5.6767621671896E-01
(PID.TID 0000.0001) %MON dynstat_theta_sd             =   8.6784135036196E-01
(PID.TID 0000.0001) %MON dynstat_theta_del2           =   9.4652405346187E-06
(PID.TID 0000.0001) %MON dynstat_salt_max             =   3.4700000000000E+01
(PID.TID 0000.0001) %MON dynstat_salt_min             =   3.4000000000000E+01
(PID.TID 0000.0001) %MON dynstat_salt_mean            =   3.4498684361119E+01
(PID.TID 0000.0001) %MON dynstat_salt_sd              =   2.7608452155356E-01
(PID.TID 0000.0001) %MON dynstat_salt_del2            =   3.7562613447410E-06
(PID.TID 0000.0001) %MON advcfl_uvel_max              =   9.9074491214099E-03
(PID.TID 0000.0001) %MON advcfl_vvel_max              =   4.9011997327688E-03
(PID.TID 0000.0001) %MON advcfl_wvel_max              =   1.4115559283069E-02
(PID.TID 0000.0001) %MON advcfl_W_hf_max              =   1.4115559283069E-02
(PID.TID 0000.0001) %MON pe_b_mean                    =  -8.2855840748568E-01
(PID.TID 0000.0001) %MON ke_max                       =   4.2926787309654E-03
(PID.TID 0000.0001) %MON ke_mean                      =   5.3803822470913E-06
(PID.TID 0000.0001) %MON ke_vol                       =   4.2724673145343E+12
(PID.TID 0000.0001) // =======================================================
(PID.TID 0000.0001) // End MONITOR dynamic field statistics
(PID.TID 0000.0001) // =======================================================
(PID.TID 0000.0001) // =======================================================
(PID.TID 0000.0001) // Begin OBCS MONITOR field statistics
(PID.TID 0000.0001) // =======================================================
(PID.TID 0000.0001) %MON obc_N_vVel_max               =   1.5079282088894E-05
(PID.TID 0000.0001) %MON obc_N_vVel_min               =   1.5079282088894E-05
(PID.TID 0000.0001) %MON obc_N_vVel_mean              =   1.5079282088894E-05
(PID.TID 0000.0001) %MON obc_N_vVel_sd                =   3.4520386295046E-12
(PID.TID 0000.0001) %MON obc_N_vVel_Int               =   9.9523261786700E+02
(PID.TID 0000.0001) // =======================================================
(PID.TID 0000.0001) // End OBCS MONITOR field statistics
(PID.TID 0000.0001) // =======================================================
 cg2d: Sum(rhs),rhsMax =   4.50099157967582E+00  2.99986916471267E+02
(PID.TID 0000.0001)      cg2d_init_res =   1.57732409074081E-05
(PID.TID 0000.0001)      cg2d_iters(min,last) =      -1      86
(PID.TID 0000.0001)      cg2d_last_res =   9.72592648091729E-12
(PID.TID 0000.0001) // =======================================================
(PID.TID 0000.0001) // Begin MONITOR dynamic field statistics
(PID.TID 0000.0001) // =======================================================
(PID.TID 0000.0001) %MON time_tsnumber                =                  1723
(PID.TID 0000.0001) %MON time_secondsf                =   1.7230000000000E+05
(PID.TID 0000.0001) %MON dynstat_eta_max              =   5.8225597716965E+00
(PID.TID 0000.0001) %MON dynstat_eta_min              =  -1.4194741936263E+01
(PID.TID 0000.0001) %MON dynstat_eta_mean             =  -2.5004418241668E+00
(PID.TID 0000.0001) %MON dynstat_eta_sd               =   4.9490624042129E+00
(PID.TID 0000.0001) %MON dynstat_eta_del2             =   2.0718207960996E-01
(PID.TID 0000.0001) %MON dynstat_uvel_max             =   2.2808400403862E-02
(PID.TID 0000.0001) %MON dynstat_uvel_min             =  -9.9252305388212E-02
(PID.TID 0000.0001) %MON dynstat_uvel_mean            =  -9.8577101008458E-08
(PID.TID 0000.0001) %MON dynstat_uvel_sd              =   2.9551055244937E-03
(PID.TID 0000.0001) %MON dynstat_uvel_del2            =   4.9709875547165E-06
(PID.TID 0000.0001) %MON dynstat_vvel_max             =   4.9044451536100E-02
(PID.TID 0000.0001) %MON dynstat_vvel_min             =  -3.5885597573317E-02
(PID.TID 0000.0001) %MON dynstat_vvel_mean            =   1.5441868791192E-05
(PID.TID 0000.0001) %MON dynstat_vvel_sd              =   1.4965537735031E-03
(PID.TID 0000.0001) %MON dynstat_vvel_del2            =   3.1224190864604E-06
(PID.TID 0000.0001) %MON dynstat_wvel_max             =   2.8252502032649E-03
(PID.TID 0000.0001) %MON dynstat_wvel_min             =  -2.6733487687125E-03
(PID.TID 0000.0001) %MON dynstat_wvel_mean            =   7.8857792497931E-09
(PID.TID 0000.0001) %MON dynstat_wvel_sd              =   5.3265168553304E-05
(PID.TID 0000.0001) %MON dynstat_wvel_del2            =   2.0193277297718E-07
(PID.TID 0000.0001) %MON dynstat_theta_max            =   1.2000000000000E+00
(PID.TID 0000.0001) %MON dynstat_theta_min            =  -1.0000000000000E+00
(PID.TID 0000.0001) %MON dynstat_theta_mean           =   5.6767359819652E-01
(PID.TID 0000.0001) %MON dynstat_theta_sd             =   8.6784010609152E-01
(PID.TID 0000.0001) %MON dynstat_theta_del2           =   9.4800895289346E-06
(PID.TID 0000.0001) %MON dynstat_salt_max             =   3.4700000000000E+01
(PID.TID 0000.0001) %MON dynstat_salt_min             =   3.4000000000000E+01
(PID.TID 0000.0001) %MON dynstat_salt_mean            =   3.4498683312982E+01
(PID.TID 0000.0001) %MON dynstat_salt_sd              =   2.7608405799926E-01
(PID.TID 0000.0001) %MON dynstat_salt_del2            =   3.7621993867590E-06
(PID.TID 0000.0001) %MON advcfl_uvel_max              =   9.9252305388212E-03
(PID.TID 0000.0001) %MON advcfl_vvel_max              =   4.9044451536100E-03
(PID.TID 0000.0001) %MON advcfl_wvel_max              =   1.4126251016325E-02
(PID.TID 0000.0001) %MON advcfl_W_hf_max              =   1.4126251016325E-02
(PID.TID 0000.0001) %MON pe_b_mean                    =  -8.2855571949230E-01
(PID.TID 0000.0001) %MON ke_max                       =   4.3065609682573E-03
(PID.TID 0000.0001) %MON ke_mean                      =   5.3996782837647E-06
(PID.TID 0000.0001) %MON ke_vol                       =   4.2724673449672E+12
(PID.TID 0000.0001) // =======================================================
(PID.TID 0000.0001) // End MONITOR dynamic field statistics
(PID.TID 0000.0001) // =======================================================
(PID.TID 0000.0001) // =======================================================
(PID.TID 0000.0001) // Begin OBCS MONITOR field statistics
(PID.TID 0000.0001) // =======================================================
(PID.TID 0000.0001) %MON obc_N_vVel_max               =   1.5083112185303E-05
(PID.TID 0000.0001) %MON obc_N_vVel_min               =   1.5083112185303E-05
(PID.TID 0000.0001) %MON obc_N_vVel_mean              =   1.5083112185303E-05
(PID.TID 0000.0001) %MON obc_N_vVel_sd                =   1.8749713606747E-12
(PID.TID 0000.0001) %MON obc_N_vVel_Int               =   9.9548540423001E+02
(PID.TID 0000.0001) // =======================================================
(PID.TID 0000.0001) // End OBCS MONITOR field statistics
(PID.TID 0000.0001) // =======================================================
 cg2d: Sum(rhs),rhsMax =   4.50098089750290E+00  2.99987007147242E+02
(PID.TID 0000.0001)      cg2d_init_res =   1.57941752714113E-05
(PID.TID 0000.0001)      cg2d_iters(min,last) =      -1      86
(PID.TID 0000.0001)      cg2d_last_res =   9.70884244796055E-12
(PID.TID 0000.0001) // =======================================================
(PID.TID 0000.0001) // Begin MONITOR dynamic field statistics
(PID.TID 0000.0001) // =======================================================
(PID.TID 0000.0001) %MON time_tsnumber                =                  1724
(PID.TID 0000.0001) %MON time_secondsf                =   1.7240000000000E+05
(PID.TID 0000.0001) %MON dynstat_eta_max              =   5.8227065402211E+00
(PID.TID 0000.0001) %MON dynstat_eta_min              =  -1.4194764042929E+01
(PID.TID 0000.0001) %MON dynstat_eta_mean             =  -2.5004366456830E+00
(PID.TID 0000.0001) %MON dynstat_eta_sd               =   4.9490615463932E+00
(PID.TID 0000.0001) %MON dynstat_eta_del2             =   2.0718215870514E-01
(PID.TID 0000.0001) %MON dynstat_uvel_max             =   2.2850940914996E-02
(PID.TID 0000.0001) %MON dynstat_uvel_min             =  -9.9430141715498E-02
(PID.TID 0000.0001) %MON dynstat_uvel_mean            =  -9.8357611182282E-08
(PID.TID 0000.0001) %MON dynstat_uvel_sd              =   2.9604091330174E-03
(PID.TID 0000.0001) %MON dynstat_uvel_del2            =   4.9820037668299E-06
(PID.TID 0000.0001) %MON dynstat_vvel_max             =   4.9076831423291E-02
(PID.TID 0000.0001) %MON dynstat_vvel_min             =  -3.5948580678957E-02
(PID.TID 0000.0001) %MON dynstat_vvel_mean            =   1.5446618991001E-05
(PID.TID 0000.0001) %MON dynstat_vvel_sd              =   1.4992072059496E-03
(PID.TID 0000.0001) %MON dynstat_vvel_del2            =   3.1280630170845E-06
(PID.TID 0000.0001) %MON dynstat_wvel_max             =   2.8273840302029E-03
(PID.TID 0000.0001) %MON dynstat_wvel_min             =  -2.6738682853065E-03
(PID.TID 0000.0001) %MON dynstat_wvel_mean            =   7.8929999182988E-09
(PID.TID 0000.0001) %MON dynstat_wvel_sd              =   5.3343843066200E-05
(PID.TID 0000.0001) %MON dynstat_wvel_del2            =   2.0220803432677E-07
(PID.TID 0000.0001) %MON dynstat_theta_max            =   1.2000000000000E+00
(PID.TID 0000.0001) %MON dynstat_theta_min            =  -1.0000000000000E+00
(PID.TID 0000.0001) %MON dynstat_theta_mean           =   5.6767097586865E-01
(PID.TID 0000.0001) %MON dynstat_theta_sd             =   8.6783886047378E-01
(PID.TID 0000.0001) %MON dynstat_theta_del2           =   9.4949503244948E-06
(PID.TID 0000.0001) %MON dynstat_salt_max             =   3.4700000000000E+01
(PID.TID 0000.0001) %MON dynstat_salt_min             =   3.4000000000000E+01
(PID.TID 0000.0001) %MON dynstat_salt_mean            =   3.4498682263321E+01
(PID.TID 0000.0001) %MON dynstat_salt_sd              =   2.7608359400419E-01
(PID.TID 0000.0001) %MON dynstat_salt_del2            =   3.7681423856363E-06
(PID.TID 0000.0001) %MON advcfl_uvel_max              =   9.9430141715498E-03
(PID.TID 0000.0001) %MON advcfl_vvel_max              =   4.9076831423291E-03
(PID.TID 0000.0001) %MON advcfl_wvel_max              =   1.4136920151014E-02
(PID.TID 0000.0001) %MON advcfl_W_hf_max              =   1.4136920151014E-02
(PID.TID 0000.0001) %MON pe_b_mean                    =  -8.2855302159352E-01
(PID.TID 0000.0001) %MON ke_max                       =   4.3204677354706E-03
(PID.TID 0000.0001) %MON ke_mean                      =   5.4190285452998E-06
(PID.TID 0000.0001) %MON ke_vol                       =   4.2724673755644E+12
(PID.TID 0000.0001) // =======================================================
(PID.TID 0000.0001) // End MONITOR dynamic field statistics
(PID.TID 0000.0001) // =======================================================
(PID.TID 0000.0001) // =======================================================
(PID.TID 0000.0001) // Begin OBCS MONITOR field statistics
(PID.TID 0000.0001) // =======================================================
(PID.TID 0000.0001) %MON obc_N_vVel_max               =   1.5087158905245E-05
(PID.TID 0000.0001) %MON obc_N_vVel_min               =   1.5087158905245E-05
(PID.TID 0000.0001) %MON obc_N_vVel_mean              =   1.5087158905245E-05
(PID.TID 0000.0001) %MON obc_N_vVel_sd                =  -3.6189151799195E-24
(PID.TID 0000.0001) %MON obc_N_vVel_Int               =   9.9575248774618E+02
(PID.TID 0000.0001) // =======================================================
(PID.TID 0000.0001) // End OBCS MONITOR field statistics
(PID.TID 0000.0001) // =======================================================
 cg2d: Sum(rhs),rhsMax =   4.50097016469338E+00  2.99987097922437E+02
(PID.TID 0000.0001)      cg2d_init_res =   1.58150001088578E-05
(PID.TID 0000.0001)      cg2d_iters(min,last) =      -1      86
(PID.TID 0000.0001)      cg2d_last_res =   9.69710326747153E-12
(PID.TID 0000.0001) // =======================================================
(PID.TID 0000.0001) // Begin MONITOR dynamic field statistics
(PID.TID 0000.0001) // =======================================================
(PID.TID 0000.0001) %MON time_tsnumber                =                  1725
(PID.TID 0000.0001) %MON time_secondsf                =   1.7250000000000E+05
(PID.TID 0000.0001) %MON dynstat_eta_max              =   5.8228535722350E+00
(PID.TID 0000.0001) %MON dynstat_eta_min              =  -1.4194786141789E+01
(PID.TID 0000.0001) %MON dynstat_eta_mean             =  -2.5004314398923E+00
(PID.TID 0000.0001) %MON dynstat_eta_sd               =   4.9490606805600E+00
(PID.TID 0000.0001) %MON dynstat_eta_del2             =   2.0718223788671E-01
(PID.TID 0000.0001) %MON dynstat_uvel_max             =   2.2893530716276E-02
(PID.TID 0000.0001) %MON dynstat_uvel_min             =  -9.9607999056325E-02
(PID.TID 0000.0001) %MON dynstat_uvel_mean            =  -9.8222722271671E-08
(PID.TID 0000.0001) %MON dynstat_uvel_sd              =   2.9657175650368E-03
(PID.TID 0000.0001) %MON dynstat_uvel_del2            =   4.9930372043205E-06
(PID.TID 0000.0001) %MON dynstat_vvel_max             =   4.9109136957181E-02
(PID.TID 0000.0001) %MON dynstat_vvel_min             =  -3.6011473250221E-02
(PID.TID 0000.0001) %MON dynstat_vvel_mean            =   1.5451522120576E-05
(PID.TID 0000.0001) %MON dynstat_vvel_sd              =   1.5018643996171E-03
(PID.TID 0000.0001) %MON dynstat_vvel_del2            =   3.1337148223147E-06
(PID.TID 0000.0001) %MON dynstat_wvel_max             =   2.8295133396168E-03
(PID.TID 0000.0001) %MON dynstat_wvel_min             =  -2.6743609269015E-03
(PID.TID 0000.0001) %MON dynstat_wvel_mean            =   7.9002229735596E-09
(PID.TID 0000.0001) %MON dynstat_wvel_sd              =   5.3422002125366E-05
(PID.TID 0000.0001) %MON dynstat_wvel_del2            =   2.0248130047442E-07
(PID.TID 0000.0001) %MON dynstat_theta_max            =   1.2000000000000E+00
(PID.TID 0000.0001) %MON dynstat_theta_min            =  -1.0000000000000E+00
(PID.TID 0000.0001) %MON dynstat_theta_mean           =   5.6766834973402E-01
(PID.TID 0000.0001) %MON dynstat_theta_sd             =   8.6783761351211E-01
(PID.TID 0000.0001) %MON dynstat_theta_del2           =   9.5098229152872E-06
(PID.TID 0000.0001) %MON dynstat_salt_max             =   3.4700000000000E+01
(PID.TID 0000.0001) %MON dynstat_salt_min             =   3.4000000000000E+01
(PID.TID 0000.0001) %MON dynstat_salt_mean            =   3.4498681212135E+01
(PID.TID 0000.0001) %MON dynstat_salt_sd              =   2.7608312956947E-01
(PID.TID 0000.0001) %MON dynstat_salt_del2            =   3.7740905609283E-06
(PID.TID 0000.0001) %MON advcfl_uvel_max              =   9.9607999056325E-03
(PID.TID 0000.0001) %MON advcfl_vvel_max              =   4.9109136957181E-03
(PID.TID 0000.0001) %MON advcfl_wvel_max              =   1.4147566698084E-02
(PID.TID 0000.0001) %MON advcfl_W_hf_max              =   1.4147566698084E-02
(PID.TID 0000.0001) %MON pe_b_mean                    =  -8.2855031381737E-01
(PID.TID 0000.0001) %MON ke_max                       =   4.3343990134158E-03
(PID.TID 0000.0001) %MON ke_mean                      =   5.4384330903704E-06
(PID.TID 0000.0001) %MON ke_vol                       =   4.2724674063246E+12
(PID.TID 0000.0001) // =======================================================
(PID.TID 0000.0001) // End MONITOR dynamic field statistics
(PID.TID 0000.0001) // =======================================================
(PID.TID 0000.0001) // =======================================================
(PID.TID 0000.0001) // Begin OBCS MONITOR field statistics
(PID.TID 0000.0001) // =======================================================
(PID.TID 0000.0001) %MON obc_N_vVel_max               =   1.5091345515381E-05
(PID.TID 0000.0001) %MON obc_N_vVel_min               =   1.5091345515381E-05
(PID.TID 0000.0001) %MON obc_N_vVel_mean              =   1.5091345515381E-05
(PID.TID 0000.0001) %MON obc_N_vVel_sd                =  -9.8744685623518E-24
(PID.TID 0000.0001) %MON obc_N_vVel_Int               =   9.9602880401516E+02
(PID.TID 0000.0001) // =======================================================
(PID.TID 0000.0001) // End OBCS MONITOR field statistics
(PID.TID 0000.0001) // =======================================================
 cg2d: Sum(rhs),rhsMax =   4.50095938142972E+00  2.99987188791457E+02
(PID.TID 0000.0001)      cg2d_init_res =   1.58357155249489E-05
(PID.TID 0000.0001)      cg2d_iters(min,last) =      -1      86
(PID.TID 0000.0001)      cg2d_last_res =   9.69447998609805E-12
(PID.TID 0000.0001) // =======================================================
(PID.TID 0000.0001) // Begin MONITOR dynamic field statistics
(PID.TID 0000.0001) // =======================================================
(PID.TID 0000.0001) %MON time_tsnumber                =                  1726
(PID.TID 0000.0001) %MON time_secondsf                =   1.7260000000000E+05
(PID.TID 0000.0001) %MON dynstat_eta_max              =   5.8230008675576E+00
(PID.TID 0000.0001) %MON dynstat_eta_min              =  -1.4194808232237E+01
(PID.TID 0000.0001) %MON dynstat_eta_mean             =  -2.5004262068512E+00
(PID.TID 0000.0001) %MON dynstat_eta_sd               =   4.9490598066693E+00
(PID.TID 0000.0001) %MON dynstat_eta_del2             =   2.0718231715468E-01
(PID.TID 0000.0001) %MON dynstat_uvel_max             =   2.2936170684741E-02
(PID.TID 0000.0001) %MON dynstat_uvel_min             =  -9.9785876247960E-02
(PID.TID 0000.0001) %MON dynstat_uvel_mean            =  -9.8187499053831E-08
(PID.TID 0000.0001) %MON dynstat_uvel_sd              =   2.9710308103297E-03
(PID.TID 0000.0001) %MON dynstat_uvel_del2            =   5.0040878533601E-06
(PID.TID 0000.0001) %MON dynstat_vvel_max             =   4.9141368101206E-02
(PID.TID 0000.0001) %MON dynstat_vvel_min             =  -3.6074273552032E-02
(PID.TID 0000.0001) %MON dynstat_vvel_mean            =   1.5456505581142E-05
(PID.TID 0000.0001) %MON dynstat_vvel_sd              =   1.5045253488107E-03
(PID.TID 0000.0001) %MON dynstat_vvel_del2            =   3.1393744547370E-06
(PID.TID 0000.0001) %MON dynstat_wvel_max             =   2.8316381339417E-03
(PID.TID 0000.0001) %MON dynstat_wvel_min             =  -2.6748242845515E-03
(PID.TID 0000.0001) %MON dynstat_wvel_mean            =   7.9074171775772E-09
(PID.TID 0000.0001) %MON dynstat_wvel_sd              =   5.3499574977972E-05
(PID.TID 0000.0001) %MON dynstat_wvel_del2            =   2.0275221206447E-07
(PID.TID 0000.0001) %MON dynstat_theta_max            =   1.2000000000000E+00
(PID.TID 0000.0001) %MON dynstat_theta_min            =  -1.0000000000000E+00
(PID.TID 0000.0001) %MON dynstat_theta_mean           =   5.6766571979099E-01
(PID.TID 0000.0001) %MON dynstat_theta_sd             =   8.6783636520671E-01
(PID.TID 0000.0001) %MON dynstat_theta_del2           =   9.5247082926551E-06
(PID.TID 0000.0001) %MON dynstat_salt_max             =   3.4700000000000E+01
(PID.TID 0000.0001) %MON dynstat_salt_min             =   3.4000000000000E+01
(PID.TID 0000.0001) %MON dynstat_salt_mean            =   3.4498680159423E+01
(PID.TID 0000.0001) %MON dynstat_salt_sd              =   2.7608266469544E-01
(PID.TID 0000.0001) %MON dynstat_salt_del2            =   3.7800440290036E-06
(PID.TID 0000.0001) %MON advcfl_uvel_max              =   9.9785876247960E-03
(PID.TID 0000.0001) %MON advcfl_vvel_max              =   4.9141368101206E-03
(PID.TID 0000.0001) %MON advcfl_wvel_max              =   1.4158190669709E-02
(PID.TID 0000.0001) %MON advcfl_W_hf_max              =   1.4158190669709E-02
(PID.TID 0000.0001) %MON pe_b_mean                    =  -8.2854759617383E-01
(PID.TID 0000.0001) %MON ke_max                       =   4.3483547808688E-03
(PID.TID 0000.0001) %MON ke_mean                      =   5.4578919848034E-06
(PID.TID 0000.0001) %MON ke_vol                       =   4.2724674372470E+12
(PID.TID 0000.0001) // =======================================================
(PID.TID 0000.0001) // End MONITOR dynamic field statistics
(PID.TID 0000.0001) // =======================================================
(PID.TID 0000.0001) // =======================================================
(PID.TID 0000.0001) // Begin OBCS MONITOR field statistics
(PID.TID 0000.0001) // =======================================================
(PID.TID 0000.0001) %MON obc_N_vVel_max               =   1.5095603043787E-05
(PID.TID 0000.0001) %MON obc_N_vVel_min               =   1.5095603043787E-05
(PID.TID 0000.0001) %MON obc_N_vVel_mean              =   1.5095603043787E-05
(PID.TID 0000.0001) %MON obc_N_vVel_sd                =   3.4295005955297E-12
(PID.TID 0000.0001) %MON obc_N_vVel_Int               =   9.9630980088993E+02
(PID.TID 0000.0001) // =======================================================
(PID.TID 0000.0001) // End OBCS MONITOR field statistics
(PID.TID 0000.0001) // =======================================================
 cg2d: Sum(rhs),rhsMax =   4.50094854777915E+00  2.99987279748480E+02
(PID.TID 0000.0001)      cg2d_init_res =   1.58564213183784E-05
(PID.TID 0000.0001)      cg2d_iters(min,last) =      -1      86
(PID.TID 0000.0001)      cg2d_last_res =   9.70188411209697E-12
(PID.TID 0000.0001) // =======================================================
(PID.TID 0000.0001) // Begin MONITOR dynamic field statistics
(PID.TID 0000.0001) // =======================================================
(PID.TID 0000.0001) %MON time_tsnumber                =                  1727
(PID.TID 0000.0001) %MON time_secondsf                =   1.7270000000000E+05
(PID.TID 0000.0001) %MON dynstat_eta_max              =   5.8231484260203E+00
(PID.TID 0000.0001) %MON dynstat_eta_min              =  -1.4194830313669E+01
(PID.TID 0000.0001) %MON dynstat_eta_mean             =  -2.5004209465484E+00
(PID.TID 0000.0001) %MON dynstat_eta_sd               =   4.9490589246617E+00
(PID.TID 0000.0001) %MON dynstat_eta_del2             =   2.0718239650928E-01
(PID.TID 0000.0001) %MON dynstat_uvel_max             =   2.2978861615846E-02
(PID.TID 0000.0001) %MON dynstat_uvel_min             =  -9.9963772123415E-02
(PID.TID 0000.0001) %MON dynstat_uvel_mean            =  -9.8247110916615E-08
(PID.TID 0000.0001) %MON dynstat_uvel_sd              =   2.9763488592382E-03
(PID.TID 0000.0001) %MON dynstat_uvel_del2            =   5.0151557032428E-06
(PID.TID 0000.0001) %MON dynstat_vvel_max             =   4.9173524818478E-02
(PID.TID 0000.0001) %MON dynstat_vvel_min             =  -3.6136977695643E-02
(PID.TID 0000.0001) %MON dynstat_vvel_mean            =   1.5461498132697E-05
(PID.TID 0000.0001) %MON dynstat_vvel_sd              =   1.5071900520839E-03
(PID.TID 0000.0001) %MON dynstat_vvel_del2            =   3.1450418893401E-06
(PID.TID 0000.0001) %MON dynstat_wvel_max             =   2.8337584156850E-03
(PID.TID 0000.0001) %MON dynstat_wvel_min             =  -2.6752588567131E-03
(PID.TID 0000.0001) %MON dynstat_wvel_mean            =   7.9144806269780E-09
(PID.TID 0000.0001) %MON dynstat_wvel_sd              =   5.3576525701235E-05
(PID.TID 0000.0001) %MON dynstat_wvel_del2            =   2.0302057499140E-07
(PID.TID 0000.0001) %MON dynstat_theta_max            =   1.2000000000000E+00
(PID.TID 0000.0001) %MON dynstat_theta_min            =  -1.0000000000000E+00
(PID.TID 0000.0001) %MON dynstat_theta_mean           =   5.6766308603765E-01
(PID.TID 0000.0001) %MON dynstat_theta_sd             =   8.6783511555956E-01
(PID.TID 0000.0001) %MON dynstat_theta_del2           =   9.5396065169790E-06
(PID.TID 0000.0001) %MON dynstat_salt_max             =   3.4700000000000E+01
(PID.TID 0000.0001) %MON dynstat_salt_min             =   3.4000000000000E+01
(PID.TID 0000.0001) %MON dynstat_salt_mean            =   3.4498679105185E+01
(PID.TID 0000.0001) %MON dynstat_salt_sd              =   2.7608219938301E-01
(PID.TID 0000.0001) %MON dynstat_salt_del2            =   3.7860028264079E-06
(PID.TID 0000.0001) %MON advcfl_uvel_max              =   9.9963772123415E-03
(PID.TID 0000.0001) %MON advcfl_vvel_max              =   4.9173524818478E-03
(PID.TID 0000.0001) %MON advcfl_wvel_max              =   1.4168792078425E-02
(PID.TID 0000.0001) %MON advcfl_W_hf_max              =   1.4168792078425E-02
(PID.TID 0000.0001) %MON pe_b_mean                    =  -8.2854486865468E-01
(PID.TID 0000.0001) %MON ke_max                       =   4.3623350159196E-03
(PID.TID 0000.0001) %MON ke_mean                      =   5.4774053023290E-06
(PID.TID 0000.0001) %MON ke_vol                       =   4.2724674683313E+12
(PID.TID 0000.0001) // =======================================================
(PID.TID 0000.0001) // End MONITOR dynamic field statistics
(PID.TID 0000.0001) // =======================================================
(PID.TID 0000.0001) // =======================================================
(PID.TID 0000.0001) // Begin OBCS MONITOR field statistics
(PID.TID 0000.0001) // =======================================================
(PID.TID 0000.0001) %MON obc_N_vVel_max               =   1.5099870675078E-05
(PID.TID 0000.0001) %MON obc_N_vVel_min               =   1.5099870675078E-05
(PID.TID 0000.0001) %MON obc_N_vVel_mean              =   1.5099870675078E-05
(PID.TID 0000.0001) %MON obc_N_vVel_sd                =  -4.0842042744806E-24
(PID.TID 0000.0001) %MON obc_N_vVel_Int               =   9.9659146455517E+02
(PID.TID 0000.0001) // =======================================================
(PID.TID 0000.0001) // End OBCS MONITOR field statistics
(PID.TID 0000.0001) // =======================================================
 cg2d: Sum(rhs),rhsMax =   4.50093766370727E+00  2.99987370787297E+02
(PID.TID 0000.0001)      cg2d_init_res =   1.58770096792160E-05
(PID.TID 0000.0001)      cg2d_iters(min,last) =      -1      86
(PID.TID 0000.0001)      cg2d_last_res =   9.71789041582777E-12
(PID.TID 0000.0001) // =======================================================
(PID.TID 0000.0001) // Begin MONITOR dynamic field statistics
(PID.TID 0000.0001) // =======================================================
(PID.TID 0000.0001) %MON time_tsnumber                =                  1728
(PID.TID 0000.0001) %MON time_secondsf                =   1.7280000000000E+05
(PID.TID 0000.0001) %MON dynstat_eta_max              =   5.8232962475341E+00
(PID.TID 0000.0001) %MON dynstat_eta_min              =  -1.4194852385541E+01
(PID.TID 0000.0001) %MON dynstat_eta_mean             =  -2.5004156589131E+00
(PID.TID 0000.0001) %MON dynstat_eta_sd               =   4.9490580344620E+00
(PID.TID 0000.0001) %MON dynstat_eta_del2             =   2.0718247595034E-01
(PID.TID 0000.0001) %MON dynstat_uvel_max             =   2.3021603452062E-02
(PID.TID 0000.0001) %MON dynstat_uvel_min             =  -1.0014168552261E-01
(PID.TID 0000.0001) %MON dynstat_uvel_mean            =  -9.8380329878549E-08
(PID.TID 0000.0001) %MON dynstat_uvel_sd              =   2.9816717028472E-03
(PID.TID 0000.0001) %MON dynstat_uvel_del2            =   5.0262407369734E-06
(PID.TID 0000.0001) %MON dynstat_vvel_max             =   4.9205607073669E-02
(PID.TID 0000.0001) %MON dynstat_vvel_min             =  -3.6199583895097E-02
(PID.TID 0000.0001) %MON dynstat_vvel_mean            =   1.5466430196317E-05
(PID.TID 0000.0001) %MON dynstat_vvel_sd              =   1.5098585127679E-03
(PID.TID 0000.0001) %MON dynstat_vvel_del2            =   3.1507171444455E-06
(PID.TID 0000.0001) %MON dynstat_wvel_max             =   2.8358741874221E-03
(PID.TID 0000.0001) %MON dynstat_wvel_min             =  -2.6756642831892E-03
(PID.TID 0000.0001) %MON dynstat_wvel_mean            =   7.9212596774585E-09
(PID.TID 0000.0001) %MON dynstat_wvel_sd              =   5.3652852019160E-05
(PID.TID 0000.0001) %MON dynstat_wvel_del2            =   2.0328634684023E-07
(PID.TID 0000.0001) %MON dynstat_theta_max            =   1.2000000000000E+00
(PID.TID 0000.0001) %MON dynstat_theta_min            =  -1.0000000000000E+00
(PID.TID 0000.0001) %MON dynstat_theta_mean           =   5.6766044847176E-01
(PID.TID 0000.0001) %MON dynstat_theta_sd             =   8.6783386457257E-01
(PID.TID 0000.0001) %MON dynstat_theta_del2           =   9.5545176610682E-06
(PID.TID 0000.0001) %MON dynstat_salt_max             =   3.4700000000000E+01
(PID.TID 0000.0001) %MON dynstat_salt_min             =   3.4000000000000E+01
(PID.TID 0000.0001) %MON dynstat_salt_mean            =   3.4498678049419E+01
(PID.TID 0000.0001) %MON dynstat_salt_sd              =   2.7608173363320E-01
(PID.TID 0000.0001) %MON dynstat_salt_del2            =   3.7919669758519E-06
(PID.TID 0000.0001) %MON advcfl_uvel_max              =   1.0014168552261E-02
(PID.TID 0000.0001) %MON advcfl_vvel_max              =   4.9205607073669E-03
(PID.TID 0000.0001) %MON advcfl_wvel_max              =   1.4179370937110E-02
(PID.TID 0000.0001) %MON advcfl_W_hf_max              =   1.4179370937110E-02
(PID.TID 0000.0001) %MON pe_b_mean                    =  -8.2854213123371E-01
(PID.TID 0000.0001) %MON ke_max                       =   4.3763396972526E-03
(PID.TID 0000.0001) %MON ke_mean                      =   5.4969731259760E-06
(PID.TID 0000.0001) %MON ke_vol                       =   4.2724674995775E+12
(PID.TID 0000.0001) // =======================================================
(PID.TID 0000.0001) // End MONITOR dynamic field statistics
(PID.TID 0000.0001) // =======================================================
(PID.TID 0000.0001) // =======================================================
(PID.TID 0000.0001) // Begin OBCS MONITOR field statistics
(PID.TID 0000.0001) // =======================================================
(PID.TID 0000.0001) %MON obc_N_vVel_max               =   1.5104094513220E-05
(PID.TID 0000.0001) %MON obc_N_vVel_min               =   1.5104094513220E-05
(PID.TID 0000.0001) %MON obc_N_vVel_mean              =   1.5104094513220E-05
(PID.TID 0000.0001) %MON obc_N_vVel_sd                =   2.4116620165383E-12
(PID.TID 0000.0001) %MON obc_N_vVel_Int               =   9.9687023787250E+02
(PID.TID 0000.0001) // =======================================================
(PID.TID 0000.0001) // End OBCS MONITOR field statistics
(PID.TID 0000.0001) // =======================================================
(PID.TID 0000.0001) %CHECKPOINT      1728 0000001728
 cg2d: Sum(rhs),rhsMax =   4.50092672908963E+00  2.99987461901174E+02
(PID.TID 0000.0001)      cg2d_init_res =   1.58974947640763E-05
(PID.TID 0000.0001)      cg2d_iters(min,last) =      -1      86
(PID.TID 0000.0001)      cg2d_last_res =   9.73934648105351E-12
(PID.TID 0000.0001) // =======================================================
(PID.TID 0000.0001) // Begin MONITOR dynamic field statistics
(PID.TID 0000.0001) // =======================================================
(PID.TID 0000.0001) %MON time_tsnumber                =                  1729
(PID.TID 0000.0001) %MON time_secondsf                =   1.7290000000000E+05
(PID.TID 0000.0001) %MON dynstat_eta_max              =   5.8234443321450E+00
(PID.TID 0000.0001) %MON dynstat_eta_min              =  -1.4194874447363E+01
(PID.TID 0000.0001) %MON dynstat_eta_mean             =  -2.5004103438199E+00
(PID.TID 0000.0001) %MON dynstat_eta_sd               =   4.9490571359832E+00
(PID.TID 0000.0001) %MON dynstat_eta_del2             =   2.0718255547770E-01
(PID.TID 0000.0001) %MON dynstat_uvel_max             =   2.3064396100917E-02
(PID.TID 0000.0001) %MON dynstat_uvel_min             =  -1.0031961529013E-01
(PID.TID 0000.0001) %MON dynstat_uvel_mean            =  -9.8555581411898E-08
(PID.TID 0000.0001) %MON dynstat_uvel_sd              =   2.9869993322577E-03
(PID.TID 0000.0001) %MON dynstat_uvel_del2            =   5.0373429369054E-06
(PID.TID 0000.0001) %MON dynstat_vvel_max             =   4.9237614834684E-02
(PID.TID 0000.0001) %MON dynstat_vvel_min             =  -3.6262090360967E-02
(PID.TID 0000.0001) %MON dynstat_vvel_mean            =   1.5471233854825E-05
(PID.TID 0000.0001) %MON dynstat_vvel_sd              =   1.5125307402991E-03
(PID.TID 0000.0001) %MON dynstat_vvel_del2            =   3.1564002803962E-06
(PID.TID 0000.0001) %MON dynstat_wvel_max             =   2.8379854518342E-03
(PID.TID 0000.0001) %MON dynstat_wvel_min             =  -2.6760405673171E-03
(PID.TID 0000.0001) %MON dynstat_wvel_mean            =   7.9275734461480E-09
(PID.TID 0000.0001) %MON dynstat_wvel_sd              =   5.3728585264639E-05
(PID.TID 0000.0001) %MON dynstat_wvel_del2            =   2.0354964516869E-07
(PID.TID 0000.0001) %MON dynstat_theta_max            =   1.2000000000000E+00
(PID.TID 0000.0001) %MON dynstat_theta_min            =  -1.0000000000000E+00
(PID.TID 0000.0001) %MON dynstat_theta_mean           =   5.6765780709081E-01
(PID.TID 0000.0001) %MON dynstat_theta_sd             =   8.6783261224786E-01
(PID.TID 0000.0001) %MON dynstat_theta_del2           =   9.5694416483486E-06
(PID.TID 0000.0001) %MON dynstat_salt_max             =   3.4700000000000E+01
(PID.TID 0000.0001) %MON dynstat_salt_min             =   3.4000000000000E+01
(PID.TID 0000.0001) %MON dynstat_salt_mean            =   3.4498676992124E+01
(PID.TID 0000.0001) %MON dynstat_salt_sd              =   2.7608126743984E-01
(PID.TID 0000.0001) %MON dynstat_salt_del2            =   3.7979366264576E-06
(PID.TID 0000.0001) %MON advcfl_uvel_max              =   1.0031961529013E-02
(PID.TID 0000.0001) %MON advcfl_vvel_max              =   4.9237614834684E-03
(PID.TID 0000.0001) %MON advcfl_wvel_max              =   1.4189927259171E-02
(PID.TID 0000.0001) %MON advcfl_W_hf_max              =   1.4189927259171E-02
(PID.TID 0000.0001) %MON pe_b_mean                    =  -8.2853938386713E-01
(PID.TID 0000.0001) %MON ke_max                       =   4.3903688036355E-03
(PID.TID 0000.0001) %MON ke_mean                      =   5.5165955480369E-06
(PID.TID 0000.0001) %MON ke_vol                       =   4.2724675309861E+12
(PID.TID 0000.0001) // =======================================================
(PID.TID 0000.0001) // End MONITOR dynamic field statistics
(PID.TID 0000.0001) // =======================================================
(PID.TID 0000.0001) // =======================================================
(PID.TID 0000.0001) // Begin OBCS MONITOR field statistics
(PID.TID 0000.0001) // =======================================================
(PID.TID 0000.0001) %MON obc_N_vVel_max               =   1.5108225565308E-05
(PID.TID 0000.0001) %MON obc_N_vVel_min               =   1.5108225565308E-05
(PID.TID 0000.0001) %MON obc_N_vVel_mean              =   1.5108225565308E-05
(PID.TID 0000.0001) %MON obc_N_vVel_sd                =  -5.6868667113021E-25
(PID.TID 0000.0001) %MON obc_N_vVel_Int               =   9.9714288731032E+02
(PID.TID 0000.0001) // =======================================================
(PID.TID 0000.0001) // End OBCS MONITOR field statistics
(PID.TID 0000.0001) // =======================================================
(PID.TID 0000.0001) %CHECKPOINT      1729 ckptA
(PID.TID 0000.0001)   Seconds in section "ALL                    [THE_MODEL_MAIN]":
(PID.TID 0000.0001)           User time:   17.349490499123931
(PID.TID 0000.0001)         System time:  0.15823198854923248
(PID.TID 0000.0001)     Wall clock time:   17.508120059967041
(PID.TID 0000.0001)          No. starts:           1
(PID.TID 0000.0001)           No. stops:           1
(PID.TID 0000.0001)   Seconds in section "INITIALISE_FIXED       [THE_MODEL_MAIN]":
(PID.TID 0000.0001)           User time:   1.5753999352455139E-002
(PID.TID 0000.0001)         System time:   1.2191995978355408E-002
(PID.TID 0000.0001)     Wall clock time:   2.8298854827880859E-002
(PID.TID 0000.0001)          No. starts:           1
(PID.TID 0000.0001)           No. stops:           1
(PID.TID 0000.0001)   Seconds in section "THE_MAIN_LOOP          [THE_MODEL_MAIN]":
(PID.TID 0000.0001)           User time:   17.333732591941953
(PID.TID 0000.0001)         System time:  0.14602499455213547
(PID.TID 0000.0001)     Wall clock time:   17.479809999465942
(PID.TID 0000.0001)          No. starts:           1
(PID.TID 0000.0001)           No. stops:           1
(PID.TID 0000.0001)   Seconds in section "INITIALISE_VARIA    [THE_MAIN_LOOP]":
(PID.TID 0000.0001)           User time:   1.1401999741792679E-002
(PID.TID 0000.0001)         System time:   1.4502003788948059E-002
(PID.TID 0000.0001)     Wall clock time:   2.5904893875122070E-002
(PID.TID 0000.0001)          No. starts:           1
(PID.TID 0000.0001)           No. stops:           1
(PID.TID 0000.0001)   Seconds in section "MAIN LOOP           [THE_MAIN_LOOP]":
(PID.TID 0000.0001)           User time:   17.322323776781559
(PID.TID 0000.0001)         System time:  0.13151699304580688
(PID.TID 0000.0001)     Wall clock time:   17.453893899917603
(PID.TID 0000.0001)          No. starts:           1
(PID.TID 0000.0001)           No. stops:           1
(PID.TID 0000.0001)   Seconds in section "MAIN_DO_LOOP        [THE_MAIN_LOOP]":
(PID.TID 0000.0001)           User time:   17.319410696625710
(PID.TID 0000.0001)         System time:  0.13147997111082077
(PID.TID 0000.0001)     Wall clock time:   17.450930833816528
(PID.TID 0000.0001)          No. starts:         865
(PID.TID 0000.0001)           No. stops:         865
(PID.TID 0000.0001)   Seconds in section "FORWARD_STEP        [MAIN_DO_LOOP]":
(PID.TID 0000.0001)           User time:   17.313280038535595
(PID.TID 0000.0001)         System time:  0.13138900697231293
(PID.TID 0000.0001)     Wall clock time:   17.444705247879028
(PID.TID 0000.0001)          No. starts:         865
(PID.TID 0000.0001)           No. stops:         865
(PID.TID 0000.0001)   Seconds in section "SHELFICE_REMESHING     [FORWARD_STEP]":
(PID.TID 0000.0001)           User time:   3.9004266262054443E-002
(PID.TID 0000.0001)         System time:   1.2530088424682617E-003
(PID.TID 0000.0001)     Wall clock time:   4.0306329727172852E-002
(PID.TID 0000.0001)          No. starts:         865
(PID.TID 0000.0001)           No. stops:         865
(PID.TID 0000.0001)   Seconds in section "DO_STATEVARS_DIAGS  [FORWARD_STEP]":
(PID.TID 0000.0001)           User time:  0.39257303997874260
(PID.TID 0000.0001)         System time:   5.3649991750717163E-003
(PID.TID 0000.0001)     Wall clock time:  0.39848375320434570
(PID.TID 0000.0001)          No. starts:        2595
(PID.TID 0000.0001)           No. stops:        2595
(PID.TID 0000.0001)   Seconds in section "LOAD_FIELDS_DRIVER  [FORWARD_STEP]":
(PID.TID 0000.0001)           User time:   9.1220028698444366E-003
(PID.TID 0000.0001)         System time:   1.3400614261627197E-004
(PID.TID 0000.0001)     Wall clock time:   9.2580318450927734E-003
(PID.TID 0000.0001)          No. starts:         865
(PID.TID 0000.0001)           No. stops:         865
(PID.TID 0000.0001)   Seconds in section "EXTERNAL_FLDS_LOAD [LOAD_FLDS_DRIVER]":
(PID.TID 0000.0001)           User time:   3.0665583908557892E-003
(PID.TID 0000.0001)         System time:   4.7013163566589355E-005
(PID.TID 0000.0001)     Wall clock time:   3.1516551971435547E-003
(PID.TID 0000.0001)          No. starts:         865
(PID.TID 0000.0001)           No. stops:         865
(PID.TID 0000.0001)   Seconds in section "DO_ATMOSPHERIC_PHYS [FORWARD_STEP]":
(PID.TID 0000.0001)           User time:   2.9792711138725281E-003
(PID.TID 0000.0001)         System time:   4.7996640205383301E-005
(PID.TID 0000.0001)     Wall clock time:   3.0272006988525391E-003
(PID.TID 0000.0001)          No. starts:         865
(PID.TID 0000.0001)           No. stops:         865
(PID.TID 0000.0001)   Seconds in section "DO_OCEANIC_PHYS     [FORWARD_STEP]":
(PID.TID 0000.0001)           User time:   1.0248869955539703
(PID.TID 0000.0001)         System time:   1.4659047126770020E-002
(PID.TID 0000.0001)     Wall clock time:   1.0399610996246338
(PID.TID 0000.0001)          No. starts:         865
(PID.TID 0000.0001)           No. stops:         865
(PID.TID 0000.0001)   Seconds in section "SHELFICE_THERMODYNAMICS [DO_OCEANIC_PHYS]":
(PID.TID 0000.0001)           User time:   9.1699343174695969E-002
(PID.TID 0000.0001)         System time:   1.4970004558563232E-003
(PID.TID 0000.0001)     Wall clock time:   9.3271970748901367E-002
(PID.TID 0000.0001)          No. starts:         865
(PID.TID 0000.0001)           No. stops:         865
(PID.TID 0000.0001)   Seconds in section "DYNAMICS            [FORWARD_STEP]":
(PID.TID 0000.0001)           User time:   3.3990889117121696
(PID.TID 0000.0001)         System time:   1.7470031976699829E-002
(PID.TID 0000.0001)     Wall clock time:   3.4173986911773682
(PID.TID 0000.0001)          No. starts:         865
(PID.TID 0000.0001)           No. stops:         865
(PID.TID 0000.0001)   Seconds in section "UPDATE_SURF_DR      [FORWARD_STEP]":
(PID.TID 0000.0001)           User time:   2.8824388980865479E-002
(PID.TID 0000.0001)         System time:   1.7695128917694092E-004
(PID.TID 0000.0001)     Wall clock time:   2.8981208801269531E-002
(PID.TID 0000.0001)          No. starts:         865
(PID.TID 0000.0001)           No. stops:         865
(PID.TID 0000.0001)   Seconds in section "UPDATE_CG2D         [FORWARD_STEP]":
(PID.TID 0000.0001)           User time:  0.10468751192092896
(PID.TID 0000.0001)         System time:   2.0420253276824951E-003
(PID.TID 0000.0001)     Wall clock time:  0.10684084892272949
(PID.TID 0000.0001)          No. starts:         865
(PID.TID 0000.0001)           No. stops:         865
(PID.TID 0000.0001)   Seconds in section "SOLVE_FOR_PRESSURE  [FORWARD_STEP]":
(PID.TID 0000.0001)           User time:   1.7350960001349449
(PID.TID 0000.0001)         System time:   1.8276989459991455E-002
(PID.TID 0000.0001)     Wall clock time:   1.7537462711334229
(PID.TID 0000.0001)          No. starts:         865
(PID.TID 0000.0001)           No. stops:         865
(PID.TID 0000.0001)   Seconds in section "MOM_CORRECTION_STEP [FORWARD_STEP]":
(PID.TID 0000.0001)           User time:  0.21188671141862869
(PID.TID 0000.0001)         System time:   2.8229653835296631E-003
(PID.TID 0000.0001)     Wall clock time:  0.21503067016601562
(PID.TID 0000.0001)          No. starts:         865
(PID.TID 0000.0001)           No. stops:         865
(PID.TID 0000.0001)   Seconds in section "INTEGR_CONTINUITY   [FORWARD_STEP]":
(PID.TID 0000.0001)           User time:  0.29023241251707077
(PID.TID 0000.0001)         System time:   4.1359663009643555E-003
(PID.TID 0000.0001)     Wall clock time:  0.29469871520996094
(PID.TID 0000.0001)          No. starts:         865
(PID.TID 0000.0001)           No. stops:         865
(PID.TID 0000.0001)   Seconds in section "CALC_SURF_DR      [FORWARD_STEP]":
(PID.TID 0000.0001)           User time:   6.2588658183813095E-002
(PID.TID 0000.0001)         System time:   9.5102190971374512E-004
(PID.TID 0000.0001)     Wall clock time:   6.3645839691162109E-002
(PID.TID 0000.0001)          No. starts:         865
(PID.TID 0000.0001)           No. stops:         865
(PID.TID 0000.0001)   Seconds in section "BLOCKING_EXCHANGES  [FORWARD_STEP]":
(PID.TID 0000.0001)           User time:  0.56532038003206253
(PID.TID 0000.0001)         System time:   3.9019733667373657E-003
(PID.TID 0000.0001)     Wall clock time:  0.56980061531066895
(PID.TID 0000.0001)          No. starts:        1730
(PID.TID 0000.0001)           No. stops:        1730
(PID.TID 0000.0001)   Seconds in section "THERMODYNAMICS      [FORWARD_STEP]":
(PID.TID 0000.0001)           User time:   6.0821553692221642
(PID.TID 0000.0001)         System time:   1.9988000392913818E-002
(PID.TID 0000.0001)     Wall clock time:   6.1034348011016846
(PID.TID 0000.0001)          No. starts:         865
(PID.TID 0000.0001)           No. stops:         865
(PID.TID 0000.0001)   Seconds in section "TRC_CORRECTION_STEP [FORWARD_STEP]":
(PID.TID 0000.0001)           User time:   1.5513670109212399
(PID.TID 0000.0001)         System time:   3.0919909477233887E-003
(PID.TID 0000.0001)     Wall clock time:   1.5550103187561035
(PID.TID 0000.0001)          No. starts:         865
(PID.TID 0000.0001)           No. stops:         865
(PID.TID 0000.0001)   Seconds in section "MONITOR             [FORWARD_STEP]":
(PID.TID 0000.0001)           User time:   1.6426721997559071
(PID.TID 0000.0001)         System time:   1.5361100435256958E-002
(PID.TID 0000.0001)     Wall clock time:   1.6585872173309326
(PID.TID 0000.0001)          No. starts:         865
(PID.TID 0000.0001)           No. stops:         865
(PID.TID 0000.0001)   Seconds in section "DO_THE_MODEL_IO     [FORWARD_STEP]":
(PID.TID 0000.0001)           User time:   7.2033837437629700E-002
(PID.TID 0000.0001)         System time:   4.7430247068405151E-003
(PID.TID 0000.0001)     Wall clock time:   7.6846599578857422E-002
(PID.TID 0000.0001)          No. starts:         865
(PID.TID 0000.0001)           No. stops:         865
(PID.TID 0000.0001)   Seconds in section "DO_WRITE_PICKUP     [FORWARD_STEP]":
(PID.TID 0000.0001)           User time:   2.1612457931041718E-002
(PID.TID 0000.0001)         System time:   1.6034007072448730E-002
(PID.TID 0000.0001)     Wall clock time:   3.7629127502441406E-002
(PID.TID 0000.0001)          No. starts:         865
(PID.TID 0000.0001)           No. stops:         865
(PID.TID 0000.0001) // ======================================================
(PID.TID 0000.0001) // Tile <-> Tile communication statistics
(PID.TID 0000.0001) // ======================================================
(PID.TID 0000.0001) // o Tile number: 000001
(PID.TID 0000.0001) //         No. X exchanges =              0
(PID.TID 0000.0001) //            Max. X spins =              0
(PID.TID 0000.0001) //            Min. X spins =     1000000000
(PID.TID 0000.0001) //          Total. X spins =              0
(PID.TID 0000.0001) //            Avg. X spins =       0.00E+00
(PID.TID 0000.0001) //         No. Y exchanges =              0
(PID.TID 0000.0001) //            Max. Y spins =              0
(PID.TID 0000.0001) //            Min. Y spins =     1000000000
(PID.TID 0000.0001) //          Total. Y spins =              0
(PID.TID 0000.0001) //            Avg. Y spins =       0.00E+00
(PID.TID 0000.0001) // o Thread number: 000001
(PID.TID 0000.0001) //            No. barriers =         559218
(PID.TID 0000.0001) //      Max. barrier spins =              1
(PID.TID 0000.0001) //      Min. barrier spins =              1
(PID.TID 0000.0001) //     Total barrier spins =         559218
(PID.TID 0000.0001) //      Avg. barrier spins =       1.00E+00
PROGRAM MAIN: Execution ended Normally
