(PID.TID 0000.0001) 
(PID.TID 0000.0001) // ======================================================
(PID.TID 0000.0001) //                      MITgcm UV
(PID.TID 0000.0001) //                      =========
(PID.TID 0000.0001) // ======================================================
(PID.TID 0000.0001) // execution environment starting up...
(PID.TID 0000.0001) 
(PID.TID 0000.0001) // MITgcmUV version:  checkpoint67v
(PID.TID 0000.0001) // Build user:        bgetraer
(PID.TID 0000.0001) // Build host:        totten
(PID.TID 0000.0001) // Build date:        Wed Jul 26 11:53:30 AM EDT 2023
(PID.TID 0000.0001) 
(PID.TID 0000.0001) // =======================================================
(PID.TID 0000.0001) // Execution Environment parameter file "eedata"
(PID.TID 0000.0001) // =======================================================
(PID.TID 0000.0001) ># Example "eedata" file
(PID.TID 0000.0001) ># Lines beginning "#" are comments
(PID.TID 0000.0001) ># nTx - No. threads per process in X
(PID.TID 0000.0001) ># nTy - No. threads per process in Y
(PID.TID 0000.0001) > &EEPARMS
(PID.TID 0000.0001) > useCoupler=.FALSE.,
(PID.TID 0000.0001) > debugMode=.FALSE.,
(PID.TID 0000.0001) > /
(PID.TID 0000.0001) ># Note: Some systems use & as the
(PID.TID 0000.0001) ># namelist terminator. Other systems
(PID.TID 0000.0001) ># use a / character (as shown here).
(PID.TID 0000.0001) 
(PID.TID 0000.0001) // =======================================================
(PID.TID 0000.0001) // Computational Grid Specification ( see files "SIZE.h" )
(PID.TID 0000.0001) //                                  ( and "eedata"       )
(PID.TID 0000.0001) // =======================================================
(PID.TID 0000.0001)      nPx =    2 ; /* No. processes in X */
(PID.TID 0000.0001)      nPy =    6 ; /* No. processes in Y */
(PID.TID 0000.0001)      nSx =    1 ; /* No. tiles in X per process */
(PID.TID 0000.0001)      nSy =    1 ; /* No. tiles in Y per process */
(PID.TID 0000.0001)      sNx =   31 ; /* Tile size in X */
(PID.TID 0000.0001)      sNy =   17 ; /* Tile size in Y */
(PID.TID 0000.0001)      OLx =    3 ; /* Tile overlap distance in X */
(PID.TID 0000.0001)      OLy =    3 ; /* Tile overlap distance in Y */
(PID.TID 0000.0001)      nTx =    1 ; /* No. threads in X per process */
(PID.TID 0000.0001)      nTy =    1 ; /* No. threads in Y per process */
(PID.TID 0000.0001)       Nr =   55 ; /* No. levels in the vertical   */
(PID.TID 0000.0001)       Nx =   62 ; /* Total domain size in X ( = nPx*nSx*sNx ) */
(PID.TID 0000.0001)       Ny =  102 ; /* Total domain size in Y ( = nPy*nSy*sNy ) */
(PID.TID 0000.0001)   nTiles =    1 ; /* Total no. tiles per process ( = nSx*nSy ) */
(PID.TID 0000.0001)   nProcs =   12 ; /* Total no. processes ( = nPx*nPy ) */
(PID.TID 0000.0001) nThreads =    1 ; /* Total no. threads per process ( = nTx*nTy ) */
(PID.TID 0000.0001) usingMPI =    T ; /* Flag used to control whether MPI is in use */
(PID.TID 0000.0001)                   /*  note: To execute a program with MPI calls */
(PID.TID 0000.0001)                   /*  it must be launched appropriately e.g     */
(PID.TID 0000.0001)                   /*  "mpirun -np 64 ......"                    */
(PID.TID 0000.0001) useCoupler=   F ; /* Flag used to control communications with   */
(PID.TID 0000.0001)                   /*  other model components, through a coupler */
(PID.TID 0000.0001) useNest2W_parent =    F ;/* Control 2-W Nesting comm */
(PID.TID 0000.0001) useNest2W_child  =    F ;/* Control 2-W Nesting comm */
(PID.TID 0000.0001) debugMode =    F ; /* print debug msg. (sequence of S/R calls)  */
(PID.TID 0000.0001) printMapIncludesZeros=    F ; /* print zeros in Std.Output maps */
(PID.TID 0000.0001) maxLengthPrt1D=   65 /* maxLength of 1D array printed to StdOut */
(PID.TID 0000.0001) 
(PID.TID 0000.0001) ======= Starting MPI parallel Run =========
(PID.TID 0000.0001)  My Processor Name (len:  6 ) = totten
(PID.TID 0000.0001)  Located at (  0,  0) on processor grid (0:  1,0:  5)
(PID.TID 0000.0001)  Origin at  (     1,     1) on global grid (1:    62,1:   102)
(PID.TID 0000.0001)  North neighbor = processor 0001
(PID.TID 0000.0001)  South neighbor = processor 0005
(PID.TID 0000.0001)   East neighbor = processor 0006
(PID.TID 0000.0001)   West neighbor = processor 0006
(PID.TID 0000.0001) // ======================================================
(PID.TID 0000.0001) // Mapping of tiles to threads
(PID.TID 0000.0001) // ======================================================
(PID.TID 0000.0001) // -o- Thread   1, tiles (   1:   1,   1:   1)
(PID.TID 0000.0001) 
(PID.TID 0000.0001) // ======================================================
(PID.TID 0000.0001) // Tile <-> Tile connectvity table
(PID.TID 0000.0001) // ======================================================
(PID.TID 0000.0001) // Tile number: 000001 (process no. = 000000)
(PID.TID 0000.0001) //        WEST: Tile = 000002, Process = 000006, Comm = messages
(PID.TID 0000.0001) //                bi = 000001, bj = 000001
(PID.TID 0000.0001) //        EAST: Tile = 000002, Process = 000006, Comm = messages
(PID.TID 0000.0001) //                bi = 000001, bj = 000001
(PID.TID 0000.0001) //       SOUTH: Tile = 000011, Process = 000005, Comm = messages
(PID.TID 0000.0001) //                bi = 000001, bj = 000001
(PID.TID 0000.0001) //       NORTH: Tile = 000003, Process = 000001, Comm = messages
(PID.TID 0000.0001) //                bi = 000001, bj = 000001
(PID.TID 0000.0001) 
(PID.TID 0000.0001)  INI_PARMS: opening model parameter file "data"
(PID.TID 0000.0001)  OPEN_COPY_DATA_FILE: opening file data
(PID.TID 0000.0001) // =======================================================
(PID.TID 0000.0001) // Parameter file "data"
(PID.TID 0000.0001) // =======================================================
(PID.TID 0000.0001) ># ====================
(PID.TID 0000.0001) ># | Model parameters |
(PID.TID 0000.0001) ># ====================
(PID.TID 0000.0001) >#
(PID.TID 0000.0001) ># Continuous equation parameters
(PID.TID 0000.0001) > &PARM01
(PID.TID 0000.0001) ># momstepping=.FALSE.,
(PID.TID 0000.0001) ># tempstepping=.FALSE.,
(PID.TID 0000.0001) ># saltstepping=.FALSE.,
(PID.TID 0000.0001) ># BENJY: these should be of form Xref=nz*X_0. Why is nz 40 instead of 55?
(PID.TID 0000.0001) ># reference potential Temperature for each layer (deg C)
(PID.TID 0000.0001) > Tref = 40*-1.9,
(PID.TID 0000.0001) ># reference Salinity for each layer (ppt)
(PID.TID 0000.0001) > Sref = 40*34.4,
(PID.TID 0000.0001) > viscAr=1.E-3,
(PID.TID 0000.0001) > viscAh=10.0,
(PID.TID 0000.0001) > no_slip_sides=.FALSE.,
(PID.TID 0000.0001) > no_slip_bottom=.FALSE.,
(PID.TID 0000.0001) > diffKhT= 10.0,
(PID.TID 0000.0001) > diffKrT=5.E-5,
(PID.TID 0000.0001) > diffKhS= 10.0,
(PID.TID 0000.0001) > diffKrS=5.E-5,
(PID.TID 0000.0001) > bottomDragQuadratic=2.5E-3,
(PID.TID 0000.0001) > staggerTimestep = .true.,
(PID.TID 0000.0001) > tempAdvScheme=33,
(PID.TID 0000.0001) > saltAdvScheme=33,
(PID.TID 0000.0001) ># vectorInvariantMomentum = .true.,
(PID.TID 0000.0001) ># momImplVertAdv=.true.,
(PID.TID 0000.0001) ># tempImplVertAdv=.true.,
(PID.TID 0000.0001) ># saltImplVertAdv=.true.,
(PID.TID 0000.0001) > eosType='JMD95Z',
(PID.TID 0000.0001) >#tAlpha = 2.E-4,
(PID.TID 0000.0001) >#sBeta  = 7.4E-4,
(PID.TID 0000.0001) > HeatCapacity_cp = 3974.0,
(PID.TID 0000.0001) > rhoConst=1000.,
(PID.TID 0000.0001) > rhoNil=1000.,
(PID.TID 0000.0001) > gravity=9.81,
(PID.TID 0000.0001) > gBaro=9.81,
(PID.TID 0000.0001) > rigidLid=.FALSE.,
(PID.TID 0000.0001) > implicitFreeSurface=.TRUE.,
(PID.TID 0000.0001) > useRealFreshWaterFlux = .true.,
(PID.TID 0000.0001) > exactConserv=.TRUE.,
(PID.TID 0000.0001) > nonlinFreeSurf=4,
(PID.TID 0000.0001) > hFacInf=0.2,
(PID.TID 0000.0001) > hFacSup=2.0,
(PID.TID 0000.0001) > hFacMin=0.2,
(PID.TID 0000.0001) > readBinaryPrec=64,
(PID.TID 0000.0001) > debuglevel = 1,
(PID.TID 0000.0001) > selectCoriMap = 0,
(PID.TID 0000.0001) > f0 = -1.e-4,
(PID.TID 0000.0001) > useSingleCpuIO=.TRUE.,
(PID.TID 0000.0001) > globalFiles=.TRUE.,
(PID.TID 0000.0001) > useCoriolis=.TRUE.,
(PID.TID 0000.0001) > /
(PID.TID 0000.0001) >
(PID.TID 0000.0001) ># Elliptic solver parameters
(PID.TID 0000.0001) > &PARM02
(PID.TID 0000.0001) > cg2dMaxIters=1000,
(PID.TID 0000.0001) > cg2dTargetResidual=1.E-11,
(PID.TID 0000.0001) ># cg2dMinColumnEps = 1.
(PID.TID 0000.0001) ># pReleaseVisc = 1.
(PID.TID 0000.0001) > cg3dMaxIters=400,
(PID.TID 0000.0001) > cg3dTargetResidual=1.E-13,
(PID.TID 0000.0001) > /
(PID.TID 0000.0001) >
(PID.TID 0000.0001) >#Time stepping parameters
(PID.TID 0000.0001) > &PARM03
(PID.TID 0000.0001) > niter0 = 0
(PID.TID 0000.0001) > deltaT=100.0,
(PID.TID 0000.0001) > ntimesteps = 865
(PID.TID 0000.0001) > cAdjFreq = -1.,
(PID.TID 0000.0001) > pChkptFreq = 86400
(PID.TID 0000.0001) > chkptFreq=864000.0,
(PID.TID 0000.0001) > dumpFreq=864000,
(PID.TID 0000.0001) ># pickupsuff='ckptA'
(PID.TID 0000.0001) > monitorFreq=100.0,
(PID.TID 0000.0001) > monitorSelect=1,
(PID.TID 0000.0001) > /
(PID.TID 0000.0001) >
(PID.TID 0000.0001) ># Gridding parameters
(PID.TID 0000.0001) > &PARM04
(PID.TID 0000.0001) > usingCartesianGrid=.TRUE.,
(PID.TID 0000.0001) > delX=62*1000,
(PID.TID 0000.0001) > delY=102*1000,
(PID.TID 0000.0001) > delR=55*20,
(PID.TID 0000.0001) > xgOrigin=-1000,
(PID.TID 0000.0001) > ygOrigin=-2000,
(PID.TID 0000.0001) > /
(PID.TID 0000.0001) >
(PID.TID 0000.0001) ># Input datasets
(PID.TID 0000.0001) > &PARM05
(PID.TID 0000.0001) > bathyFile='BATHY60.box',
(PID.TID 0000.0001) > hydrogThetaFile='theta.init',	
(PID.TID 0000.0001) > hydrogSaltFile='salt.init',
(PID.TID 0000.0001) > pSurfInitFile='etainit.round.bin',
(PID.TID 0000.0001) > /
(PID.TID 0000.0001) 
(PID.TID 0000.0001)  INI_PARMS ; starts to read PARM01
(PID.TID 0000.0001)  INI_PARMS ; read PARM01 : OK
(PID.TID 0000.0001)  INI_PARMS ; starts to read PARM02
(PID.TID 0000.0001)  INI_PARMS ; read PARM02 : OK
(PID.TID 0000.0001)  INI_PARMS ; starts to read PARM03
(PID.TID 0000.0001)  INI_PARMS ; read PARM03 : OK
(PID.TID 0000.0001)  INI_PARMS ; starts to read PARM04
(PID.TID 0000.0001)  INI_PARMS ; read PARM04 : OK
(PID.TID 0000.0001)  INI_PARMS ; starts to read PARM05
(PID.TID 0000.0001)  INI_PARMS ; read PARM05 : OK
(PID.TID 0000.0001)  INI_PARMS: finished reading file "data"
(PID.TID 0000.0001)  PACKAGES_BOOT: opening data.pkg
(PID.TID 0000.0001)  OPEN_COPY_DATA_FILE: opening file data.pkg
(PID.TID 0000.0001) // =======================================================
(PID.TID 0000.0001) // Parameter file "data.pkg"
(PID.TID 0000.0001) // =======================================================
(PID.TID 0000.0001) ># Packages (lines beginning "#" are comments)
(PID.TID 0000.0001) > &PACKAGES
(PID.TID 0000.0001) > useOBCS=.TRUE.,
(PID.TID 0000.0001) > useShelfIce=.TRUE.,
(PID.TID 0000.0001) > useDiagnostics = .TRUE.,
(PID.TID 0000.0001) > /
(PID.TID 0000.0001) 
(PID.TID 0000.0001)  PACKAGES_BOOT: finished reading data.pkg
(PID.TID 0000.0001)  PACKAGES_BOOT: On/Off package Summary
 --------  pkgs with a standard "usePKG" On/Off switch in "data.pkg":  --------
 pkg/obcs                 compiled   and   used ( useOBCS                  = T )
 pkg/shelfice             compiled   and   used ( useShelfIce              = T )
 pkg/diagnostics          compiled   and   used ( useDiagnostics           = T )
 -------- pkgs without standard "usePKG" On/Off switch in "data.pkg":  --------
 pkg/generic_advdiff      compiled   and   used ( useGAD                   = T )
 pkg/mom_common           compiled   and   used ( momStepping              = T )
 pkg/mom_vecinv           compiled but not used ( +vectorInvariantMomentum = F )
 pkg/mom_fluxform         compiled   and   used ( & not vectorInvariantMom = T )
 pkg/monitor              compiled   and   used ( monitorFreq > 0.         = T )
 pkg/debug                compiled but not used ( debugMode                = F )
 pkg/rw                   compiled   and   used
 pkg/mdsio                compiled   and   used
(PID.TID 0000.0001)  PACKAGES_BOOT: End of package Summary
(PID.TID 0000.0001) 
(PID.TID 0000.0001)  OBCS_READPARMS: opening data.obcs
(PID.TID 0000.0001)  OPEN_COPY_DATA_FILE: opening file data.obcs
(PID.TID 0000.0001) // =======================================================
(PID.TID 0000.0001) // Parameter file "data.obcs"
(PID.TID 0000.0001) // =======================================================
(PID.TID 0000.0001) ># Open-boundaries
(PID.TID 0000.0001) > &OBCS_PARM01
(PID.TID 0000.0001) > OB_Jnorth=62*102,
(PID.TID 0000.0001) > useOBCSprescribe=.true.,
(PID.TID 0000.0001) > useOBCSsponge=.true.,
(PID.TID 0000.0001) > useLinearSponge = .TRUE.,
(PID.TID 0000.0001) ># OBWuFile='uvel.obw',
(PID.TID 0000.0001) ># OBNvFile='vvel.obw',
(PID.TID 0000.0001) > OBNtFile='theta.obw',
(PID.TID 0000.0001) > OBNsFile='salt.obw',
(PID.TID 0000.0001) > useOrlanskiNorth=.FALSE.,
(PID.TID 0000.0001) > useOBCSbalance=.TRUE.,
(PID.TID 0000.0001) > OBCS_balanceFacN=1.,
(PID.TID 0000.0001) > /
(PID.TID 0000.0001) >
(PID.TID 0000.0001) ># Orlanski parameters
(PID.TID 0000.0001) > &OBCS_PARM02
(PID.TID 0000.0001) >#Cmax=0.45,
(PID.TID 0000.0001) >#cVelTimeScale=1000.,
(PID.TID 0000.0001) > /
(PID.TID 0000.0001) >
(PID.TID 0000.0001) ># Sponge layer parameters
(PID.TID 0000.0001) > &OBCS_PARM03
(PID.TID 0000.0001) > spongeThickness = 5,
(PID.TID 0000.0001) > Vrelaxobcsbound = 864000.,
(PID.TID 0000.0001) > Urelaxobcsbound = 864000.,
(PID.TID 0000.0001) > /
(PID.TID 0000.0001) 
(PID.TID 0000.0001)  OBCS_READPARMS: finished reading data.obcs
(PID.TID 0000.0001)  OB_indexUnset = /* unset OB index value (i.e. no OB) */
(PID.TID 0000.0001)                       0
(PID.TID 0000.0001)     ;
(PID.TID 0000.0001)  Northern OB global indices : OB_Jnorth =
(PID.TID 0000.0001)    62 @      102                            /* I =  1: 62 */
(PID.TID 0000.0001)  Southern OB global indices : OB_Jsouth =
(PID.TID 0000.0001)    62 @        0                            /* I =  1: 62 */
(PID.TID 0000.0001)  Eastern  OB global indices : OB_Ieast =
(PID.TID 0000.0001)   102 @        0                            /* J =  1:102 */
(PID.TID 0000.0001)  Western  OB global indices : OB_Iwest =
(PID.TID 0000.0001)   102 @        0                            /* J =  1:102 */
(PID.TID 0000.0001) 
(PID.TID 0000.0001)  SHELFICE_READPARMS: opening data.shelfice
(PID.TID 0000.0001)  OPEN_COPY_DATA_FILE: opening file data.shelfice
(PID.TID 0000.0001) // =======================================================
(PID.TID 0000.0001) // Parameter file "data.shelfice"
(PID.TID 0000.0001) // =======================================================
(PID.TID 0000.0001) ># ===================================
(PID.TID 0000.0001) ># | Parameters for SHELFICE package |
(PID.TID 0000.0001) ># ===================================
(PID.TID 0000.0001) > &SHELFICE_PARM01
(PID.TID 0000.0001) > SHELFICEwriteState = .true.,
(PID.TID 0000.0001) > SHELFICEconserve = .true.,
(PID.TID 0000.0001) > SHELFICEboundaryLayer = .true.,
(PID.TID 0000.0001) > SHELFICEtopoFile='shelftopo.round.bin',
(PID.TID 0000.0001) > SHI_withBL_realFWflux=.true.
(PID.TID 0000.0001) > SHELFICEmassFile = 'shelficemassinit.bin',
(PID.TID 0000.0001) > SHELFICEMassDynTendFile = 'shelfice_dmdt.bin'
(PID.TID 0000.0001) > SHELFICEuseGammaFrict = .true.,
(PID.TID 0000.0001) > SHELFICEDragQuadratic = 0.0097,
(PID.TID 0000.0001) > shiCdrag = 0.0097,
(PID.TID 0000.0001) > SHELFICEheatTransCoeff = 0.0135,
(PID.TID 0000.0001) > SHELFICEsaltTransCoeff = 0.000265,
(PID.TID 0000.0001) > SHELFICEMassStepping = .true.,
(PID.TID 0000.0001) > SHELFICERemeshFrequency = 3600.0,
(PID.TID 0000.0001) > SHELFICESplitThreshold =1.3,
(PID.TID 0000.0001) > SHELFICEMergeThreshold =0.29,
(PID.TID 0000.0001) > SHELFICE_conserve_ssh = .true.,
(PID.TID 0000.0001) > SHELFICEaddrunoff=.FALSE.
(PID.TID 0000.0001) > SHELFICESubglFluxFile='runoff_flux.bin'
(PID.TID 0000.0001) > /
(PID.TID 0000.0001) 
(PID.TID 0000.0001)  SHELFICE_READPARMS: finished reading data.shelfice
(PID.TID 0000.0001)  DIAGNOSTICS_READPARMS: opening data.diagnostics
(PID.TID 0000.0001)  OPEN_COPY_DATA_FILE: opening file data.diagnostics
(PID.TID 0000.0001) // =======================================================
(PID.TID 0000.0001) // Parameter file "data.diagnostics"
(PID.TID 0000.0001) // =======================================================
(PID.TID 0000.0001) ># Diagnostic Package Choices
(PID.TID 0000.0001) >#-----------------
(PID.TID 0000.0001) ># for each output-stream:
(PID.TID 0000.0001) >#  filename(n) : prefix of the output file name (only 8.c long) for outp.stream n
(PID.TID 0000.0001) >#  frequency(n):< 0 : write snap-shot output every |frequency| seconds
(PID.TID 0000.0001) >#               > 0 : write time-average output every frequency seconds
(PID.TID 0000.0001) >#  timePhase(n)     : write at time = timePhase + multiple of |frequency|
(PID.TID 0000.0001) >#  averagingFreq(n) : frequency (in s) for periodic averaging interval
(PID.TID 0000.0001) >#  averagingPhase(n): phase     (in s) for periodic averaging interval
(PID.TID 0000.0001) >#  repeatCycle(n)   : number of averaging intervals in 1 cycle
(PID.TID 0000.0001) >#  levels(:,n) : list of levels to write to file (Notes: declared as REAL)
(PID.TID 0000.0001) >#                 when this entry is missing, select all common levels of this list
(PID.TID 0000.0001) >#  fields(:,n) : list of diagnostics fields (8.c) (see "available_diagnostics.log"
(PID.TID 0000.0001) >#                 file for the list of all available diag. in this particular config)
(PID.TID 0000.0001) >#-----------------
(PID.TID 0000.0001) > &DIAGNOSTICS_LIST
(PID.TID 0000.0001) ># diag_mnc     = .FALSE.,
(PID.TID 0000.0001) ># dumpAtLast   = .TRUE.,
(PID.TID 0000.0001) >  fields(1:6,1) =
(PID.TID 0000.0001) >#       'ETAN    ','oceTAUX ','oceTAUY ',
(PID.TID 0000.0001) >#                 'oceQnet ','oceFWflx','MXLDEPTH',
(PID.TID 0000.0001) >                'SHIfwFlx','SHI_mass','SHIRshel',
(PID.TID 0000.0001) >                 'ETAN    ','SHIuStar','SHIForcT'
(PID.TID 0000.0001) >#                 'SHIuLocM','SHIvLocM','SHIwLocM','SHItLocM','SHIsLocM',
(PID.TID 0000.0001) >#		 'SHItLocB','SHIsLocB'
(PID.TID 0000.0001) >#                'SHIForcT','SHIForcS',
(PID.TID 0000.0001) >#                'surForcT','surForcS','TFLUX   ','SFLUX   ','oceFreez',
(PID.TID 0000.0001) >#                 'TRELAX  ','SRELAX  ',
(PID.TID 0000.0001) >#                'GM_VisbK',
(PID.TID 0000.0001) >#  fields(1,1)='ETAN'
(PID.TID 0000.0001) >   filename(1) = 'surfDiag',
(PID.TID 0000.0001) >   frequency(1) =  86400,
(PID.TID 0000.0001) >   fields(1:5,2) = 'UVEL    ','VVEL    ','WVEL    ',
(PID.TID 0000.0001) >                 'THETA   ','SALT    '
(PID.TID 0000.0001) >   filename(2) = 'dynDiag',
(PID.TID 0000.0001) >  frequency(2) =  2592000.,
(PID.TID 0000.0001) >  fields(1,3) = 'SHIfwFlx'
(PID.TID 0000.0001) >  filename(3) = 'SHICE_fwFluxtave'
(PID.TID 0000.0001) > frequency(3) = 86400
(PID.TID 0000.0001) >  fields(1,4) = 'SHI_mass'
(PID.TID 0000.0001) >  filename(4) = 'SHICE_mass'
(PID.TID 0000.0001) > frequency(4) = -86400
(PID.TID 0000.0001) > timephase(4) = 0
(PID.TID 0000.0001) >#   fields(1:5,3) = 'SI_Uvel ','SI_Vvel ','SI_Thick','SI_hmask','SI_float',
(PID.TID 0000.0001) >#   filename(3) = 'streamice',
(PID.TID 0000.0001) > frequency(3) = 86400
(PID.TID 0000.0001) >#  fields(1,3) = 'EXFpreci','EXFuwind','EXFvwind','EXFtaux ','EXFtauy ',
(PID.TID 0000.0001) >#                'EXFlwdn ','EXFswdn ','EXFatemp','EXFaqh  ','EXFpress',
(PID.TID 0000.0001) >#                'GM_PsiX ','GM_PsiY ',
(PID.TID 0000.0001) >#                'GM_Kwx  ','GM_Kwy  ','GM_Kwz  ',
(PID.TID 0000.0001) >#                'GM_Kux  ','GM_Kvy  ',
(PID.TID 0000.0001) >#                'GM_Kuz  ','GM_Kvz  ',
(PID.TID 0000.0001) >#- disable this output list by commenting out the file name
(PID.TID 0000.0001) >#  filename(3) = 'diagsEXF',
(PID.TID 0000.0001) > frequency(3) = 86400
(PID.TID 0000.0001) >#  fields(1,4) = 'ADVx_TH ','ADVy_TH ','ADVr_TH ',
(PID.TID 0000.0001) >#                'DIFx_TH ','DIFy_TH ','DFrE_TH ',
(PID.TID 0000.0001) >#                'DFrI_TH ',
(PID.TID 0000.0001) >#                'ADVx_SLT',
(PID.TID 0000.0001) >#  filename(4) = 'flxDiag',
(PID.TID 0000.0001) > frequency(4) = -86400
(PID.TID 0000.0001) > /
(PID.TID 0000.0001) >
(PID.TID 0000.0001) ># Parameter for Diagnostics of per level statistics:
(PID.TID 0000.0001) >#-----------------
(PID.TID 0000.0001) ># for each output-stream:
(PID.TID 0000.0001) >#  stat_fname(n) : prefix of the output file name (only 8.c long) for outp.stream n
(PID.TID 0000.0001) >#  stat_freq(n):< 0 : write snap-shot output every |stat_freq| seconds
(PID.TID 0000.0001) >#               > 0 : write time-average output every stat_freq seconds
(PID.TID 0000.0001) >#  stat_phase(n)    : write at time = stat_phase + multiple of |stat_freq|
(PID.TID 0000.0001) >#  stat_region(:,n) : list of "regions" (default: 1 region only=global)
(PID.TID 0000.0001) >#  stat_fields(:,n) : list of diagnostics fields (8.c) (see "available_diagnostics.log"
(PID.TID 0000.0001) >#                 file for the list of all available diag. in this particular config)
(PID.TID 0000.0001) >#-----------------
(PID.TID 0000.0001) > &DIAG_STATIS_PARMS
(PID.TID 0000.0001) >#- regional mask: 3 lat. band: 1 : y <= -24 ; 2 : -24<y<24 ; 3 : 24 <= y
(PID.TID 0000.0001) ># diagSt_regMaskFile='regMask_lat24.bin',
(PID.TID 0000.0001) ># nSetRegMskFile=1,
(PID.TID 0000.0001) ># set_regMask(1)= 1,  1,  1,
(PID.TID 0000.0001) ># val_regMask(1)= 1., 2., 3.,
(PID.TID 0000.0001) >#---
(PID.TID 0000.0001) >#stat_fields(1,1)= 'ETAN    ','UVEL    ','VVEL    ','WVEL    ',
(PID.TID 0000.0001) >#                  'THETA   ','SALT    ','SIarea  ','SIheff  ',
(PID.TID 0000.0001) >#   stat_fname(1)= 'dynStDiag',
(PID.TID 0000.0001) >#    stat_freq(1)= 864000.,
(PID.TID 0000.0001) > /
(PID.TID 0000.0001) >
(PID.TID 0000.0001) 
(PID.TID 0000.0001) S/R DIAGNOSTICS_READPARMS, read namelist "diagnostics_list": start
(PID.TID 0000.0001) S/R DIAGNOSTICS_READPARMS, read namelist "diagnostics_list": OK
(PID.TID 0000.0001) S/R DIAGNOSTICS_READPARMS, read namelist "DIAG_STATIS_PARMS": start
(PID.TID 0000.0001) S/R DIAGNOSTICS_READPARMS, read namelist "DIAG_STATIS_PARMS": OK
(PID.TID 0000.0001)  DIAGNOSTICS_READPARMS: global parameter summary:
(PID.TID 0000.0001)  dumpAtLast = /* always write time-ave diags at the end */
(PID.TID 0000.0001)                   F
(PID.TID 0000.0001)     ;
(PID.TID 0000.0001)  diag_mnc =   /* write NetCDF output files */
(PID.TID 0000.0001)                   F
(PID.TID 0000.0001)     ;
(PID.TID 0000.0001)  useMissingValue = /* put MissingValue where mask = 0 */
(PID.TID 0000.0001)                   F
(PID.TID 0000.0001)     ;
(PID.TID 0000.0001)  diagCG_maxIters = /* max number of iters in diag_cg2d */
(PID.TID 0000.0001)                    1000
(PID.TID 0000.0001)     ;
(PID.TID 0000.0001)  diagCG_resTarget = /* residual target for diag_cg2d */
(PID.TID 0000.0001)                 9.999999999999999E-12
(PID.TID 0000.0001)     ;
(PID.TID 0000.0001)  diagCG_pcOffDFac = /* preconditioner off-diagonal factor */
(PID.TID 0000.0001)                 9.611687812379854E-01
(PID.TID 0000.0001)     ;
(PID.TID 0000.0001) -----------------------------------------------------
(PID.TID 0000.0001)  DIAGNOSTICS_READPARMS: active diagnostics summary:
(PID.TID 0000.0001) -----------------------------------------------------
(PID.TID 0000.0001) Creating Output Stream: surfDiag
(PID.TID 0000.0001) Output Frequency:      86400.000000 ; Phase:           0.000000
(PID.TID 0000.0001)  Averaging Freq.:      86400.000000 , Phase:           0.000000 , Cycle:   1
(PID.TID 0000.0001)  missing value: -9.990000000000E+02
(PID.TID 0000.0001)  Levels:    will be set later
(PID.TID 0000.0001)  Fields:    SHIfwFlx SHI_mass SHIRshel ETAN     SHIuStar SHIForcT
(PID.TID 0000.0001) Creating Output Stream: dynDiag
(PID.TID 0000.0001) Output Frequency:    2592000.000000 ; Phase:           0.000000
(PID.TID 0000.0001)  Averaging Freq.:    2592000.000000 , Phase:           0.000000 , Cycle:   1
(PID.TID 0000.0001)  missing value: -9.990000000000E+02
(PID.TID 0000.0001)  Levels:    will be set later
(PID.TID 0000.0001)  Fields:    UVEL     VVEL     WVEL     THETA    SALT
(PID.TID 0000.0001) Creating Output Stream: SHICE_fwFluxtave
(PID.TID 0000.0001) Output Frequency:      86400.000000 ; Phase:           0.000000
(PID.TID 0000.0001)  Averaging Freq.:      86400.000000 , Phase:           0.000000 , Cycle:   1
(PID.TID 0000.0001)  missing value: -9.990000000000E+02
(PID.TID 0000.0001)  Levels:    will be set later
(PID.TID 0000.0001)  Fields:    SHIfwFlx
(PID.TID 0000.0001) Creating Output Stream: SHICE_mass
(PID.TID 0000.0001) Output Frequency:     -86400.000000 ; Phase:           0.000000
(PID.TID 0000.0001)  Averaging Freq.:          0.000000 , Phase:           0.000000 , Cycle:   1
(PID.TID 0000.0001)  missing value: -9.990000000000E+02
(PID.TID 0000.0001)  Levels:    will be set later
(PID.TID 0000.0001)  Fields:    SHI_mass
(PID.TID 0000.0001) -----------------------------------------------------
(PID.TID 0000.0001)  DIAGNOSTICS_READPARMS: statistics diags. summary:
(PID.TID 0000.0001) -----------------------------------------------------
(PID.TID 0000.0001) 
(PID.TID 0000.0001) SET_PARMS: done
(PID.TID 0000.0001) Enter INI_VERTICAL_GRID: setInterFDr=    T ; setCenterDr=    F
(PID.TID 0000.0001) %MON XC_max                       =   6.0500000000000E+04
(PID.TID 0000.0001) %MON XC_min                       =  -5.0000000000000E+02
(PID.TID 0000.0001) %MON XC_mean                      =   3.0000000000000E+04
(PID.TID 0000.0001) %MON XC_sd                        =   1.7895530168173E+04
(PID.TID 0000.0001) %MON XG_max                       =   6.0000000000000E+04
(PID.TID 0000.0001) %MON XG_min                       =  -1.0000000000000E+03
(PID.TID 0000.0001) %MON XG_mean                      =   2.9500000000000E+04
(PID.TID 0000.0001) %MON XG_sd                        =   1.7895530168173E+04
(PID.TID 0000.0001) %MON DXC_max                      =   1.0000000000000E+03
(PID.TID 0000.0001) %MON DXC_min                      =   1.0000000000000E+03
(PID.TID 0000.0001) %MON DXC_mean                     =   1.0000000000000E+03
(PID.TID 0000.0001) %MON DXC_sd                       =   0.0000000000000E+00
(PID.TID 0000.0001) %MON DXF_max                      =   1.0000000000000E+03
(PID.TID 0000.0001) %MON DXF_min                      =   1.0000000000000E+03
(PID.TID 0000.0001) %MON DXF_mean                     =   1.0000000000000E+03
(PID.TID 0000.0001) %MON DXF_sd                       =   0.0000000000000E+00
(PID.TID 0000.0001) %MON DXG_max                      =   1.0000000000000E+03
(PID.TID 0000.0001) %MON DXG_min                      =   1.0000000000000E+03
(PID.TID 0000.0001) %MON DXG_mean                     =   1.0000000000000E+03
(PID.TID 0000.0001) %MON DXG_sd                       =   0.0000000000000E+00
(PID.TID 0000.0001) %MON DXV_max                      =   1.0000000000000E+03
(PID.TID 0000.0001) %MON DXV_min                      =   1.0000000000000E+03
(PID.TID 0000.0001) %MON DXV_mean                     =   1.0000000000000E+03
(PID.TID 0000.0001) %MON DXV_sd                       =   0.0000000000000E+00
(PID.TID 0000.0001) %MON YC_max                       =   9.9500000000000E+04
(PID.TID 0000.0001) %MON YC_min                       =  -1.5000000000000E+03
(PID.TID 0000.0001) %MON YC_mean                      =   4.9000000000000E+04
(PID.TID 0000.0001) %MON YC_sd                        =   2.9443448620477E+04
(PID.TID 0000.0001) %MON YG_max                       =   9.9000000000000E+04
(PID.TID 0000.0001) %MON YG_min                       =  -2.0000000000000E+03
(PID.TID 0000.0001) %MON YG_mean                      =   4.8500000000000E+04
(PID.TID 0000.0001) %MON YG_sd                        =   2.9443448620477E+04
(PID.TID 0000.0001) %MON DYC_max                      =   1.0000000000000E+03
(PID.TID 0000.0001) %MON DYC_min                      =   1.0000000000000E+03
(PID.TID 0000.0001) %MON DYC_mean                     =   1.0000000000000E+03
(PID.TID 0000.0001) %MON DYC_sd                       =   0.0000000000000E+00
(PID.TID 0000.0001) %MON DYF_max                      =   1.0000000000000E+03
(PID.TID 0000.0001) %MON DYF_min                      =   1.0000000000000E+03
(PID.TID 0000.0001) %MON DYF_mean                     =   1.0000000000000E+03
(PID.TID 0000.0001) %MON DYF_sd                       =   0.0000000000000E+00
(PID.TID 0000.0001) %MON DYG_max                      =   1.0000000000000E+03
(PID.TID 0000.0001) %MON DYG_min                      =   1.0000000000000E+03
(PID.TID 0000.0001) %MON DYG_mean                     =   1.0000000000000E+03
(PID.TID 0000.0001) %MON DYG_sd                       =   0.0000000000000E+00
(PID.TID 0000.0001) %MON DYU_max                      =   1.0000000000000E+03
(PID.TID 0000.0001) %MON DYU_min                      =   1.0000000000000E+03
(PID.TID 0000.0001) %MON DYU_mean                     =   1.0000000000000E+03
(PID.TID 0000.0001) %MON DYU_sd                       =   0.0000000000000E+00
(PID.TID 0000.0001) %MON RA_max                       =   1.0000000000000E+06
(PID.TID 0000.0001) %MON RA_min                       =   1.0000000000000E+06
(PID.TID 0000.0001) %MON RA_mean                      =   1.0000000000000E+06
(PID.TID 0000.0001) %MON RA_sd                        =   0.0000000000000E+00
(PID.TID 0000.0001) %MON RAW_max                      =   1.0000000000000E+06
(PID.TID 0000.0001) %MON RAW_min                      =   1.0000000000000E+06
(PID.TID 0000.0001) %MON RAW_mean                     =   1.0000000000000E+06
(PID.TID 0000.0001) %MON RAW_sd                       =   0.0000000000000E+00
(PID.TID 0000.0001) %MON RAS_max                      =   1.0000000000000E+06
(PID.TID 0000.0001) %MON RAS_min                      =   1.0000000000000E+06
(PID.TID 0000.0001) %MON RAS_mean                     =   1.0000000000000E+06
(PID.TID 0000.0001) %MON RAS_sd                       =   0.0000000000000E+00
(PID.TID 0000.0001) %MON RAZ_max                      =   1.0000000000000E+06
(PID.TID 0000.0001) %MON RAZ_min                      =   1.0000000000000E+06
(PID.TID 0000.0001) %MON RAZ_mean                     =   1.0000000000000E+06
(PID.TID 0000.0001) %MON RAZ_sd                       =   0.0000000000000E+00
(PID.TID 0000.0001) %MON AngleCS_max                  =   1.0000000000000E+00
(PID.TID 0000.0001) %MON AngleCS_min                  =   1.0000000000000E+00
(PID.TID 0000.0001) %MON AngleCS_mean                 =   1.0000000000000E+00
(PID.TID 0000.0001) %MON AngleCS_sd                   =   0.0000000000000E+00
(PID.TID 0000.0001) %MON AngleSN_max                  =   0.0000000000000E+00
(PID.TID 0000.0001) %MON AngleSN_min                  =   0.0000000000000E+00
(PID.TID 0000.0001) %MON AngleSN_mean                 =   0.0000000000000E+00
(PID.TID 0000.0001) %MON AngleSN_sd                   =   0.0000000000000E+00
(PID.TID 0000.0001) GAD_INIT_FIXED: GAD_OlMinSize=  2  0  1
(PID.TID 0000.0001) 
(PID.TID 0000.0001) // ===================================
(PID.TID 0000.0001) // GAD parameters :
(PID.TID 0000.0001) // ===================================
(PID.TID 0000.0001) tempAdvScheme =   /* Temp. Horiz.Advection scheme selector */
(PID.TID 0000.0001)                      33
(PID.TID 0000.0001)     ;
(PID.TID 0000.0001) tempVertAdvScheme =   /* Temp. Vert. Advection scheme selector */
(PID.TID 0000.0001)                      33
(PID.TID 0000.0001)     ;
(PID.TID 0000.0001) tempMultiDimAdvec =   /* use Muti-Dim Advec method for Temp */
(PID.TID 0000.0001)                   T
(PID.TID 0000.0001)     ;
(PID.TID 0000.0001) tempSOM_Advection = /* use 2nd Order Moment Advection for Temp */
(PID.TID 0000.0001)                   F
(PID.TID 0000.0001)     ;
(PID.TID 0000.0001) AdamsBashforthGt = /* apply Adams-Bashforth extrapolation on Gt */
(PID.TID 0000.0001)                   F
(PID.TID 0000.0001)     ;
(PID.TID 0000.0001) AdamsBashforth_T = /* apply Adams-Bashforth extrapolation on Temp */
(PID.TID 0000.0001)                   F
(PID.TID 0000.0001)     ;
(PID.TID 0000.0001) saltAdvScheme =   /* Salt. Horiz.advection scheme selector */
(PID.TID 0000.0001)                      33
(PID.TID 0000.0001)     ;
(PID.TID 0000.0001) saltVertAdvScheme =   /* Salt. Vert. Advection scheme selector */
(PID.TID 0000.0001)                      33
(PID.TID 0000.0001)     ;
(PID.TID 0000.0001) saltMultiDimAdvec =   /* use Muti-Dim Advec method for Salt */
(PID.TID 0000.0001)                   T
(PID.TID 0000.0001)     ;
(PID.TID 0000.0001) saltSOM_Advection = /* use 2nd Order Moment Advection for Salt */
(PID.TID 0000.0001)                   F
(PID.TID 0000.0001)     ;
(PID.TID 0000.0001) AdamsBashforthGs = /* apply Adams-Bashforth extrapolation on Gs */
(PID.TID 0000.0001)                   F
(PID.TID 0000.0001)     ;
(PID.TID 0000.0001) AdamsBashforth_S = /* apply Adams-Bashforth extrapolation on Salt */
(PID.TID 0000.0001)                   F
(PID.TID 0000.0001)     ;
(PID.TID 0000.0001) // ===================================
(PID.TID 0000.0001) ------------------------------------------------------------
(PID.TID 0000.0001) DIAGNOSTICS_SET_LEVELS: done
(PID.TID 0000.0001)  Total Nb of available Diagnostics: ndiagt=   204
(PID.TID 0000.0001)  write list of available Diagnostics to file: available_diagnostics.log
(PID.TID 0000.0001) SETDIAG: Allocate  1 x  1 Levels for Diagnostic #   194 SHIfwFlx
(PID.TID 0000.0001) SETDIAG: Allocate  1 x  1 Levels for Diagnostic #   203 SHI_mass
(PID.TID 0000.0001) SETDIAG: Allocate  1 x  1 Levels for Diagnostic #   204 SHIRshel
(PID.TID 0000.0001) SETDIAG: Allocate  1 x  1 Levels for Diagnostic #    23 ETAN
(PID.TID 0000.0001) SETDIAG: Allocate  1 x  1 Levels for Diagnostic #   202 SHIuStar
(PID.TID 0000.0001) SETDIAG: Allocate  1 x  1 Levels for Diagnostic #   198 SHIForcT
(PID.TID 0000.0001) SETDIAG: Allocate 55 x  1 Levels for Diagnostic #    30 UVEL
(PID.TID 0000.0001) SETDIAG: Allocate 55 x  1 Levels for Diagnostic #    31 VVEL
(PID.TID 0000.0001) SETDIAG: Allocate 55 x  1 Levels for Diagnostic #    32 WVEL
(PID.TID 0000.0001) SETDIAG: Allocate 55 x  1 Levels for Diagnostic #    26 THETA
(PID.TID 0000.0001) SETDIAG: Allocate 55 x  1 Levels for Diagnostic #    27 SALT
(PID.TID 0000.0001) - NOTE - SETDIAG:  Diagnostic  #   194 SHIfwFlx is already set
(PID.TID 0000.0001) SETDIAG: Allocate  1 x  1 Levels for Diagnostic #   203 SHI_mass
(PID.TID 0000.0001)   space allocated for all diagnostics:     282 levels
(PID.TID 0000.0001)   set mate pointer for diag #    30  UVEL     , Parms: UUR     MR , mate:    31
(PID.TID 0000.0001)   set mate pointer for diag #    31  VVEL     , Parms: VVR     MR , mate:    30
(PID.TID 0000.0001) DIAGNOSTICS_SET_POINTERS: Set levels for Outp.Stream: surfDiag
(PID.TID 0000.0001)  Levels:       1.
(PID.TID 0000.0001) DIAGNOSTICS_SET_POINTERS: Set levels for Outp.Stream: dynDiag
(PID.TID 0000.0001)  Levels:       1.   2.   3.   4.   5.   6.   7.   8.   9.  10.  11.  12.  13.  14.  15.  16.  17.  18.  19.  20.
(PID.TID 0000.0001)  Levels:      21.  22.  23.  24.  25.  26.  27.  28.  29.  30.  31.  32.  33.  34.  35.  36.  37.  38.  39.  40.
(PID.TID 0000.0001)  Levels:      41.  42.  43.  44.  45.  46.  47.  48.  49.  50.  51.  52.  53.  54.  55.
(PID.TID 0000.0001) DIAGNOSTICS_SET_POINTERS: Set levels for Outp.Stream: SHICE_fwFluxtave
(PID.TID 0000.0001)  Levels:       1.
(PID.TID 0000.0001) DIAGNOSTICS_SET_POINTERS: Set levels for Outp.Stream: SHICE_mass
(PID.TID 0000.0001)  Levels:       1.
(PID.TID 0000.0001) DIAGNOSTICS_SET_POINTERS: done
(PID.TID 0000.0001) ------------------------------------------------------------
(PID.TID 0000.0001) DIAGSTATS_SET_REGIONS: define no region
(PID.TID 0000.0001) ------------------------------------------------------------
(PID.TID 0000.0001)   space allocated for all stats-diags:       0 levels
(PID.TID 0000.0001) DIAGSTATS_SET_POINTERS: done
(PID.TID 0000.0001) ------------------------------------------------------------
(PID.TID 0000.0001) %MON fCori_max                    =  -1.0000000000000E-04
(PID.TID 0000.0001) %MON fCori_min                    =  -1.0000000000000E-04
(PID.TID 0000.0001) %MON fCori_mean                   =  -1.0000000000000E-04
(PID.TID 0000.0001) %MON fCori_sd                     =   9.2157184661268E-19
(PID.TID 0000.0001) %MON fCoriG_max                   =  -1.0000000000000E-04
(PID.TID 0000.0001) %MON fCoriG_min                   =  -1.0000000000000E-04
(PID.TID 0000.0001) %MON fCoriG_mean                  =  -1.0000000000000E-04
(PID.TID 0000.0001) %MON fCoriG_sd                    =   9.2157184661268E-19
(PID.TID 0000.0001) %MON fCoriCos_max                 =   0.0000000000000E+00
(PID.TID 0000.0001) %MON fCoriCos_min                 =   0.0000000000000E+00
(PID.TID 0000.0001) %MON fCoriCos_mean                =   0.0000000000000E+00
(PID.TID 0000.0001) %MON fCoriCos_sd                  =   0.0000000000000E+00
(PID.TID 0000.0001) INI_CG2D: CG2D normalisation factor =  9.0909090909090909E-04
(PID.TID 0000.0001) 
(PID.TID 0000.0001) // =======================================================
(PID.TID 0000.0001) // Model configuration
(PID.TID 0000.0001) // =======================================================
(PID.TID 0000.0001) //
(PID.TID 0000.0001) // "Physical" paramters ( PARM01 in namelist )
(PID.TID 0000.0001) //
(PID.TID 0000.0001) buoyancyRelation = /* Type of relation to get Buoyancy */
(PID.TID 0000.0001)               'OCEANIC'
(PID.TID 0000.0001)     ;
(PID.TID 0000.0001) fluidIsAir   =  /* fluid major constituent is Air */
(PID.TID 0000.0001)                   F
(PID.TID 0000.0001)     ;
(PID.TID 0000.0001) fluidIsWater =  /* fluid major constituent is Water */
(PID.TID 0000.0001)                   T
(PID.TID 0000.0001)     ;
(PID.TID 0000.0001) usingPCoords =  /* use p (or p*) vertical coordinate */
(PID.TID 0000.0001)                   F
(PID.TID 0000.0001)     ;
(PID.TID 0000.0001) usingZCoords =  /* use z (or z*) vertical coordinate */
(PID.TID 0000.0001)                   T
(PID.TID 0000.0001)     ;
(PID.TID 0000.0001) tRef =   /* Reference temperature profile ( oC or K ) */
(PID.TID 0000.0001)    55 @ -1.900000000000000E+00              /* K =  1: 55 */
(PID.TID 0000.0001)     ;
(PID.TID 0000.0001) sRef =   /* Reference salinity profile ( psu ) */
(PID.TID 0000.0001)    55 @  3.440000000000000E+01              /* K =  1: 55 */
(PID.TID 0000.0001)     ;
(PID.TID 0000.0001) useStrainTensionVisc= /* Use StrainTension Form of Viscous Operator */
(PID.TID 0000.0001)                   F
(PID.TID 0000.0001)     ;
(PID.TID 0000.0001) useVariableVisc = /* Use variable horizontal viscosity */
(PID.TID 0000.0001)                   F
(PID.TID 0000.0001)     ;
(PID.TID 0000.0001) useHarmonicVisc = /* Use harmonic horizontal viscosity */
(PID.TID 0000.0001)                   T
(PID.TID 0000.0001)     ;
(PID.TID 0000.0001) useBiharmonicVisc= /* Use biharmonic horiz.  viscosity */
(PID.TID 0000.0001)                   F
(PID.TID 0000.0001)     ;
(PID.TID 0000.0001) useSmag3D = /* Use isotropic 3-D Smagorinsky viscosity */
(PID.TID 0000.0001)                   F
(PID.TID 0000.0001)     ;
(PID.TID 0000.0001) viscAh  =   /* Lateral harmonic viscosity ( m^2/s ) */
(PID.TID 0000.0001)                 1.000000000000000E+01
(PID.TID 0000.0001)     ;
(PID.TID 0000.0001) viscA4  =   /* Lateral biharmonic viscosity ( m^4/s ) */
(PID.TID 0000.0001)                 0.000000000000000E+00
(PID.TID 0000.0001)     ;
(PID.TID 0000.0001) no_slip_sides =  /* Viscous BCs: No-slip sides */
(PID.TID 0000.0001)                   F
(PID.TID 0000.0001)     ;
(PID.TID 0000.0001) sideDragFactor = /* side-drag scaling factor (non-dim) */
(PID.TID 0000.0001)                 2.000000000000000E+00
(PID.TID 0000.0001)     ;
(PID.TID 0000.0001) viscArNr = /* vertical profile of vertical viscosity ( m^2/s )*/
(PID.TID 0000.0001)    55 @  1.000000000000000E-03              /* K =  1: 55 */
(PID.TID 0000.0001)     ;
(PID.TID 0000.0001) no_slip_bottom =  /* Viscous BCs: No-slip bottom */
(PID.TID 0000.0001)                   F
(PID.TID 0000.0001)     ;
(PID.TID 0000.0001) bottomVisc_pCell = /* Partial-cell in bottom Visc. BC */
(PID.TID 0000.0001)                   F
(PID.TID 0000.0001)     ;
(PID.TID 0000.0001) bottomDragLinear = /* linear bottom-drag coefficient ( m/s ) */
(PID.TID 0000.0001)                 0.000000000000000E+00
(PID.TID 0000.0001)     ;
(PID.TID 0000.0001) bottomDragQuadratic = /* quadratic bottom-drag coefficient (-) */
(PID.TID 0000.0001)                 2.500000000000000E-03
(PID.TID 0000.0001)     ;
(PID.TID 0000.0001) selectBotDragQuadr = /* select quadratic bottom drag options */
(PID.TID 0000.0001)                       0
(PID.TID 0000.0001)     ;
(PID.TID 0000.0001) diffKhT =   /* Laplacian diffusion of heat laterally ( m^2/s ) */
(PID.TID 0000.0001)                 1.000000000000000E+01
(PID.TID 0000.0001)     ;
(PID.TID 0000.0001) diffK4T =   /* Biharmonic diffusion of heat laterally ( m^4/s ) */
(PID.TID 0000.0001)                 0.000000000000000E+00
(PID.TID 0000.0001)     ;
(PID.TID 0000.0001) diffKhS =   /* Laplacian diffusion of salt laterally ( m^2/s ) */
(PID.TID 0000.0001)                 1.000000000000000E+01
(PID.TID 0000.0001)     ;
(PID.TID 0000.0001) diffK4S =   /* Biharmonic diffusion of salt laterally ( m^4/s ) */
(PID.TID 0000.0001)                 0.000000000000000E+00
(PID.TID 0000.0001)     ;
(PID.TID 0000.0001) diffKrNrT = /* vertical profile of vertical diffusion of Temp ( m^2/s )*/
(PID.TID 0000.0001)    55 @  5.000000000000000E-05              /* K =  1: 55 */
(PID.TID 0000.0001)     ;
(PID.TID 0000.0001) diffKrNrS = /* vertical profile of vertical diffusion of Salt ( m^2/s )*/
(PID.TID 0000.0001)    55 @  5.000000000000000E-05              /* K =  1: 55 */
(PID.TID 0000.0001)     ;
(PID.TID 0000.0001) diffKrBL79surf = /* Surface diffusion for Bryan and Lewis 79 ( m^2/s ) */
(PID.TID 0000.0001)                 0.000000000000000E+00
(PID.TID 0000.0001)     ;
(PID.TID 0000.0001) diffKrBL79deep = /* Deep diffusion for Bryan and Lewis 1979 ( m^2/s ) */
(PID.TID 0000.0001)                 0.000000000000000E+00
(PID.TID 0000.0001)     ;
(PID.TID 0000.0001) diffKrBL79scl = /* Depth scale for Bryan and Lewis 1979 ( m ) */
(PID.TID 0000.0001)                 2.000000000000000E+02
(PID.TID 0000.0001)     ;
(PID.TID 0000.0001) diffKrBL79Ho = /* Turning depth for Bryan and Lewis 1979 ( m ) */
(PID.TID 0000.0001)                -2.000000000000000E+03
(PID.TID 0000.0001)     ;
(PID.TID 0000.0001) ivdc_kappa = /* Implicit Vertical Diffusivity for Convection ( m^2/s) */
(PID.TID 0000.0001)                 0.000000000000000E+00
(PID.TID 0000.0001)     ;
(PID.TID 0000.0001) hMixCriteria=  /* Criteria for mixed-layer diagnostic */
(PID.TID 0000.0001)                -8.000000000000000E-01
(PID.TID 0000.0001)     ;
(PID.TID 0000.0001) dRhoSmall =  /* Parameter for mixed-layer diagnostic */
(PID.TID 0000.0001)                 1.000000000000000E-06
(PID.TID 0000.0001)     ;
(PID.TID 0000.0001) hMixSmooth=  /* Smoothing parameter for mixed-layer diagnostic */
(PID.TID 0000.0001)                 0.000000000000000E+00
(PID.TID 0000.0001)     ;
(PID.TID 0000.0001) eosType =  /* Type of Equation of State */
(PID.TID 0000.0001)               'JMD95Z'
(PID.TID 0000.0001)     ;
(PID.TID 0000.0001) eosRefP0 = /* Reference atmospheric pressure for EOS ( Pa ) */
(PID.TID 0000.0001)                 1.013250000000000E+05
(PID.TID 0000.0001)     ;
(PID.TID 0000.0001) selectP_inEOS_Zc = /* select pressure to use in EOS (0,1,2,3) */
(PID.TID 0000.0001)                       0
(PID.TID 0000.0001)     0= -g*rhoConst*z ; 1= pRef (from tRef,sRef); 2= Hyd P ; 3= Hyd+NH P
(PID.TID 0000.0001)     ;
(PID.TID 0000.0001) surf_pRef = /* Surface reference pressure ( Pa ) */
(PID.TID 0000.0001)                 1.013250000000000E+05
(PID.TID 0000.0001)     ;
(PID.TID 0000.0001) HeatCapacity_Cp =  /* Specific heat capacity ( J/kg/K ) */
(PID.TID 0000.0001)                 3.974000000000000E+03
(PID.TID 0000.0001)     ;
(PID.TID 0000.0001) celsius2K = /* 0 degree Celsius converted to Kelvin ( K ) */
(PID.TID 0000.0001)                 2.731500000000000E+02
(PID.TID 0000.0001)     ;
(PID.TID 0000.0001) rhoConst  = /* Reference density (Boussinesq)  ( kg/m^3 ) */
(PID.TID 0000.0001)                 1.000000000000000E+03
(PID.TID 0000.0001)     ;
(PID.TID 0000.0001) rhoFacC = /* normalized Reference density @ cell-Center (-) */
(PID.TID 0000.0001)    55 @  1.000000000000000E+00              /* K =  1: 55 */
(PID.TID 0000.0001)     ;
(PID.TID 0000.0001) rhoFacF = /* normalized Reference density @ W-Interface (-) */
(PID.TID 0000.0001)    56 @  1.000000000000000E+00              /* K =  1: 56 */
(PID.TID 0000.0001)     ;
(PID.TID 0000.0001) rhoConstFresh = /* Fresh-water reference density ( kg/m^3 ) */
(PID.TID 0000.0001)                 1.000000000000000E+03
(PID.TID 0000.0001)     ;
(PID.TID 0000.0001) gravity =   /* Gravitational acceleration ( m/s^2 ) */
(PID.TID 0000.0001)                 9.810000000000000E+00
(PID.TID 0000.0001)     ;
(PID.TID 0000.0001) gBaro =   /* Barotropic gravity ( m/s^2 ) */
(PID.TID 0000.0001)                 9.810000000000000E+00
(PID.TID 0000.0001)     ;
(PID.TID 0000.0001) gravFacC = /* gravity factor (vs surf.) @ cell-Center (-) */
(PID.TID 0000.0001)    55 @  1.000000000000000E+00              /* K =  1: 55 */
(PID.TID 0000.0001)     ;
(PID.TID 0000.0001) gravFacF = /* gravity factor (vs surf.) @ W-Interface (-) */
(PID.TID 0000.0001)    56 @  1.000000000000000E+00              /* K =  1: 56 */
(PID.TID 0000.0001)     ;
(PID.TID 0000.0001) rotationPeriod =   /* Rotation Period ( s ) */
(PID.TID 0000.0001)                 8.616400000000000E+04
(PID.TID 0000.0001)     ;
(PID.TID 0000.0001) omega =   /* Angular velocity ( rad/s ) */
(PID.TID 0000.0001)                 7.292123516990375E-05
(PID.TID 0000.0001)     ;
(PID.TID 0000.0001) f0 =   /* Reference coriolis parameter ( 1/s ) */
(PID.TID 0000.0001)                -1.000000000000000E-04
(PID.TID 0000.0001)     ;
(PID.TID 0000.0001) beta =   /* Beta ( 1/(m.s) ) */
(PID.TID 0000.0001)                 9.999999999999999E-12
(PID.TID 0000.0001)     ;
(PID.TID 0000.0001) fPrime =   /* Second coriolis parameter ( 1/s ) */
(PID.TID 0000.0001)                 0.000000000000000E+00
(PID.TID 0000.0001)     ;
(PID.TID 0000.0001) rigidLid =   /* Rigid lid on/off flag */
(PID.TID 0000.0001)                   F
(PID.TID 0000.0001)     ;
(PID.TID 0000.0001) implicitFreeSurface =   /* Implicit free surface on/off flag */
(PID.TID 0000.0001)                   T
(PID.TID 0000.0001)     ;
(PID.TID 0000.0001) freeSurfFac =   /* Implicit free surface factor */
(PID.TID 0000.0001)                 1.000000000000000E+00
(PID.TID 0000.0001)     ;
(PID.TID 0000.0001) implicSurfPress =  /* Surface Pressure implicit factor (0-1)*/
(PID.TID 0000.0001)                 1.000000000000000E+00
(PID.TID 0000.0001)     ;
(PID.TID 0000.0001) implicDiv2DFlow =  /* Barot. Flow Div. implicit factor (0-1)*/
(PID.TID 0000.0001)                 1.000000000000000E+00
(PID.TID 0000.0001)     ;
(PID.TID 0000.0001) uniformLin_PhiSurf = /* use uniform Bo_surf on/off flag*/
(PID.TID 0000.0001)                   T
(PID.TID 0000.0001)     ;
(PID.TID 0000.0001) uniformFreeSurfLev = /* free-surface level-index is uniform */
(PID.TID 0000.0001)                   F
(PID.TID 0000.0001)     ;
(PID.TID 0000.0001) hFacMin =   /* minimum partial cell factor (hFac) */
(PID.TID 0000.0001)                 2.000000000000000E-01
(PID.TID 0000.0001)     ;
(PID.TID 0000.0001) hFacMinDr = /* minimum partial cell thickness ( m) */
(PID.TID 0000.0001)                 0.000000000000000E+00
(PID.TID 0000.0001)     ;
(PID.TID 0000.0001) exactConserv =  /* Exact Volume Conservation on/off flag*/
(PID.TID 0000.0001)                   T
(PID.TID 0000.0001)     ;
(PID.TID 0000.0001) linFSConserveTr = /* Tracer correction for Lin Free Surface on/off flag*/
(PID.TID 0000.0001)                   F
(PID.TID 0000.0001)     ;
(PID.TID 0000.0001) nonlinFreeSurf = /* Non-linear Free Surf. options (-1,0,1,2,3)*/
(PID.TID 0000.0001)                       4
(PID.TID 0000.0001)      -1,0= Off ; 1,2,3= On, 2=+rescale gU,gV, 3=+update cg2d solv.
(PID.TID 0000.0001)     ;
(PID.TID 0000.0001) hFacInf =   /* lower threshold for hFac (nonlinFreeSurf only)*/
(PID.TID 0000.0001)                 2.000000000000000E-01
(PID.TID 0000.0001)     ;
(PID.TID 0000.0001) hFacSup =   /* upper threshold for hFac (nonlinFreeSurf only)*/
(PID.TID 0000.0001)                 2.000000000000000E+00
(PID.TID 0000.0001)     ;
(PID.TID 0000.0001) select_rStar = /* r* Vertical coord. options (=0 r coord.; >0 uses r*)*/
(PID.TID 0000.0001)                       0
(PID.TID 0000.0001)     ;
(PID.TID 0000.0001) useRealFreshWaterFlux = /* Real Fresh Water Flux on/off flag*/
(PID.TID 0000.0001)                   T
(PID.TID 0000.0001)     ;
(PID.TID 0000.0001) temp_EvPrRn = /* Temp. of Evap/Prec/R (UNSET=use local T)(oC)*/
(PID.TID 0000.0001)                 1.234567000000000E+05
(PID.TID 0000.0001)     ;
(PID.TID 0000.0001) salt_EvPrRn = /* Salin. of Evap/Prec/R (UNSET=use local S)(psu)*/
(PID.TID 0000.0001)                 0.000000000000000E+00
(PID.TID 0000.0001)     ;
(PID.TID 0000.0001) selectAddFluid = /* option for mass source/sink of fluid (=0: off) */
(PID.TID 0000.0001)                       0
(PID.TID 0000.0001)     ;
(PID.TID 0000.0001) temp_addMass = /* Temp. of addMass array (UNSET=use local T)(oC)*/
(PID.TID 0000.0001)                 1.234567000000000E+05
(PID.TID 0000.0001)     ;
(PID.TID 0000.0001) salt_addMass = /* Salin. of addMass array (UNSET=use local S)(psu)*/
(PID.TID 0000.0001)                 0.000000000000000E+00
(PID.TID 0000.0001)     ;
(PID.TID 0000.0001) use3Dsolver = /* use 3-D pressure solver on/off flag */
(PID.TID 0000.0001)                   F
(PID.TID 0000.0001)     ;
(PID.TID 0000.0001) nonHydrostatic =  /* Non-Hydrostatic on/off flag */
(PID.TID 0000.0001)                   F
(PID.TID 0000.0001)     ;
(PID.TID 0000.0001) nh_Am2 = /* Non-Hydrostatic terms scaling factor */
(PID.TID 0000.0001)                 1.000000000000000E+00
(PID.TID 0000.0001)     ;
(PID.TID 0000.0001) implicitNHPress = /* Non-Hyd Pressure implicit factor (0-1)*/
(PID.TID 0000.0001)                 1.000000000000000E+00
(PID.TID 0000.0001)     ;
(PID.TID 0000.0001) selectNHfreeSurf = /* Non-Hyd (free-)Surface option */
(PID.TID 0000.0001)                       0
(PID.TID 0000.0001)     ;
(PID.TID 0000.0001) quasiHydrostatic = /* Quasi-Hydrostatic on/off flag */
(PID.TID 0000.0001)                   F
(PID.TID 0000.0001)     ;
(PID.TID 0000.0001) calc_wVelocity = /* vertical velocity calculation on/off flag */
(PID.TID 0000.0001)                   T
(PID.TID 0000.0001)     ;
(PID.TID 0000.0001) momStepping =  /* Momentum equation on/off flag */
(PID.TID 0000.0001)                   T
(PID.TID 0000.0001)     ;
(PID.TID 0000.0001) vectorInvariantMomentum= /* Vector-Invariant Momentum on/off */
(PID.TID 0000.0001)                   F
(PID.TID 0000.0001)     ;
(PID.TID 0000.0001) momAdvection =  /* Momentum advection on/off flag */
(PID.TID 0000.0001)                   T
(PID.TID 0000.0001)     ;
(PID.TID 0000.0001) momViscosity =  /* Momentum viscosity on/off flag */
(PID.TID 0000.0001)                   T
(PID.TID 0000.0001)     ;
(PID.TID 0000.0001) momImplVertAdv= /* Momentum implicit vert. advection on/off*/
(PID.TID 0000.0001)                   F
(PID.TID 0000.0001)     ;
(PID.TID 0000.0001) implicitViscosity = /* Implicit viscosity on/off flag */
(PID.TID 0000.0001)                   F
(PID.TID 0000.0001)     ;
(PID.TID 0000.0001) selectImplicitDrag= /* Implicit bot Drag options (0,1,2)*/
(PID.TID 0000.0001)                       0
(PID.TID 0000.0001)     0= Expl. ; 1= Impl. on provis. Vel ; 2= Fully Impl (with surf.P)
(PID.TID 0000.0001)     ;
(PID.TID 0000.0001) metricTerms =  /* metric-Terms on/off flag */
(PID.TID 0000.0001)                   F
(PID.TID 0000.0001)     ;
(PID.TID 0000.0001) useNHMTerms = /* Non-Hydrostatic Metric-Terms on/off */
(PID.TID 0000.0001)                   F
(PID.TID 0000.0001)     ;
(PID.TID 0000.0001) selectCoriMap = /* Coriolis Map options (0,1,2,3)*/
(PID.TID 0000.0001)                       0
(PID.TID 0000.0001)     0= f-Plane ; 1= Beta-Plane ; 2= Spherical ; 3= read from file
(PID.TID 0000.0001)     ;
(PID.TID 0000.0001) use3dCoriolis = /* 3-D Coriolis on/off flag */
(PID.TID 0000.0001)                   F
(PID.TID 0000.0001)     ;
(PID.TID 0000.0001) useCoriolis =  /* Coriolis on/off flag */
(PID.TID 0000.0001)                   T
(PID.TID 0000.0001)     ;
(PID.TID 0000.0001) useCDscheme =  /* CD scheme on/off flag */
(PID.TID 0000.0001)                   F
(PID.TID 0000.0001)     ;
(PID.TID 0000.0001) selectCoriScheme= /* Scheme selector for Coriolis-Term */
(PID.TID 0000.0001)                       0
(PID.TID 0000.0001)    = 0 : original discretization (simple averaging, no hFac)
(PID.TID 0000.0001)    = 1 : Wet-point averaging (Jamar & Ozer 1986)
(PID.TID 0000.0001)    = 2 : energy conserving scheme (no hFac weight)
(PID.TID 0000.0001)    = 3 : energy conserving scheme using Wet-point averaging
(PID.TID 0000.0001)     ;
(PID.TID 0000.0001) momForcing =  /* Momentum forcing on/off flag */
(PID.TID 0000.0001)                   T
(PID.TID 0000.0001)     ;
(PID.TID 0000.0001) momTidalForcing = /* Momentum Tidal forcing on/off flag */
(PID.TID 0000.0001)                   T
(PID.TID 0000.0001)     ;
(PID.TID 0000.0001) momPressureForcing =  /* Momentum pressure term on/off flag */
(PID.TID 0000.0001)                   T
(PID.TID 0000.0001)     ;
(PID.TID 0000.0001) implicitIntGravWave= /* Implicit Internal Gravity Wave flag */
(PID.TID 0000.0001)                   F
(PID.TID 0000.0001)     ;
(PID.TID 0000.0001) staggerTimeStep =    /* Stagger time stepping on/off flag */
(PID.TID 0000.0001)                   T
(PID.TID 0000.0001)     ;
(PID.TID 0000.0001) doResetHFactors = /* reset thickness factors @ each time-step */
(PID.TID 0000.0001)                   F
(PID.TID 0000.0001)     ;
(PID.TID 0000.0001) multiDimAdvection =  /* enable/disable Multi-Dim Advection */
(PID.TID 0000.0001)                   T
(PID.TID 0000.0001)     ;
(PID.TID 0000.0001) useMultiDimAdvec =   /* Multi-Dim Advection is/is-not used */
(PID.TID 0000.0001)                   T
(PID.TID 0000.0001)     ;
(PID.TID 0000.0001) implicitDiffusion = /* Implicit Diffusion on/off flag */
(PID.TID 0000.0001)                   F
(PID.TID 0000.0001)     ;
(PID.TID 0000.0001) tempStepping =  /* Temperature equation on/off flag */
(PID.TID 0000.0001)                   T
(PID.TID 0000.0001)     ;
(PID.TID 0000.0001) tempAdvection = /* Temperature advection on/off flag */
(PID.TID 0000.0001)                   T
(PID.TID 0000.0001)     ;
(PID.TID 0000.0001) tempImplVertAdv = /* Temp. implicit vert. advection on/off */
(PID.TID 0000.0001)                   F
(PID.TID 0000.0001)     ;
(PID.TID 0000.0001) tempForcing  =  /* Temperature forcing on/off flag */
(PID.TID 0000.0001)                   T
(PID.TID 0000.0001)     ;
(PID.TID 0000.0001) doThetaClimRelax = /* apply SST relaxation on/off flag */
(PID.TID 0000.0001)                   F
(PID.TID 0000.0001)     ;
(PID.TID 0000.0001) tempIsActiveTr = /* Temp. is a dynamically Active Tracer */
(PID.TID 0000.0001)                   T
(PID.TID 0000.0001)     ;
(PID.TID 0000.0001) saltStepping =  /* Salinity equation on/off flag */
(PID.TID 0000.0001)                   T
(PID.TID 0000.0001)     ;
(PID.TID 0000.0001) saltAdvection = /* Salinity advection on/off flag */
(PID.TID 0000.0001)                   T
(PID.TID 0000.0001)     ;
(PID.TID 0000.0001) saltImplVertAdv = /* Sali. implicit vert. advection on/off */
(PID.TID 0000.0001)                   F
(PID.TID 0000.0001)     ;
(PID.TID 0000.0001) saltForcing  =  /* Salinity forcing on/off flag */
(PID.TID 0000.0001)                   T
(PID.TID 0000.0001)     ;
(PID.TID 0000.0001) doSaltClimRelax = /* apply SSS relaxation on/off flag */
(PID.TID 0000.0001)                   F
(PID.TID 0000.0001)     ;
(PID.TID 0000.0001) saltIsActiveTr = /* Salt  is a dynamically Active Tracer */
(PID.TID 0000.0001)                   T
(PID.TID 0000.0001)     ;
(PID.TID 0000.0001)  readBinaryPrec = /* Precision used for reading binary files */
(PID.TID 0000.0001)                      64
(PID.TID 0000.0001)     ;
(PID.TID 0000.0001) writeBinaryPrec = /* Precision used for writing binary files */
(PID.TID 0000.0001)                      32
(PID.TID 0000.0001)     ;
(PID.TID 0000.0001)  rwSuffixType =   /* select format of mds file suffix */
(PID.TID 0000.0001)                       0
(PID.TID 0000.0001)    = 0 : myIter (I10.10) ;   = 1 : 100*myTime (100th sec) ;
(PID.TID 0000.0001)    = 2 : myTime (seconds);   = 3 : myTime/360 (10th of hr);
(PID.TID 0000.0001)    = 4 : myTime/3600 (hours)
(PID.TID 0000.0001)     ;
(PID.TID 0000.0001)  globalFiles = /* write "global" (=not per tile) files */
(PID.TID 0000.0001)                   T
(PID.TID 0000.0001)     ;
(PID.TID 0000.0001)  useSingleCpuIO = /* only master MPI process does I/O */
(PID.TID 0000.0001)                   T
(PID.TID 0000.0001)     ;
(PID.TID 0000.0001)  useSingleCpuInput = /* only master process reads input */
(PID.TID 0000.0001)                   T
(PID.TID 0000.0001)     ;
(PID.TID 0000.0001) /* debLev[*]  : level of debug & auxiliary message printing */
(PID.TID 0000.0001) debLevZero =  0 ; /* level of disabled aux. msg printing */
(PID.TID 0000.0001)    debLevA =  1 ; /* level of minimum  aux. msg printing */
(PID.TID 0000.0001)    debLevB =  2 ; /* level of low aux. print (report read-file opening)*/
(PID.TID 0000.0001)    debLevC =  3 ; /* level of moderate debug prt (most pkgs debug msg) */
(PID.TID 0000.0001)    debLevD =  4 ; /* level of enhanced debug prt (add DEBUG_STATS prt) */
(PID.TID 0000.0001)    debLevE =  5 ; /* level of extensive debug printing */
(PID.TID 0000.0001) debugLevel =  /* select debug printing level */
(PID.TID 0000.0001)                       1
(PID.TID 0000.0001)     ;
(PID.TID 0000.0001)  plotLevel =  /* select PLOT_FIELD printing level */
(PID.TID 0000.0001)                       1
(PID.TID 0000.0001)     ;
(PID.TID 0000.0001) //
(PID.TID 0000.0001) // Elliptic solver(s) paramters ( PARM02 in namelist )
(PID.TID 0000.0001) //
(PID.TID 0000.0001) cg2dMaxIters =   /* Upper limit on 2d con. grad iterations  */
(PID.TID 0000.0001)                    1000
(PID.TID 0000.0001)     ;
(PID.TID 0000.0001) cg2dChkResFreq =   /* 2d con. grad convergence test frequency */
(PID.TID 0000.0001)                       1
(PID.TID 0000.0001)     ;
(PID.TID 0000.0001) cg2dUseMinResSol= /* use cg2d last-iter(=0) / min-resid.(=1) solution */
(PID.TID 0000.0001)                       0
(PID.TID 0000.0001)     ;
(PID.TID 0000.0001) cg2dTargetResidual =   /* 2d con. grad target residual  */
(PID.TID 0000.0001)                 9.999999999999999E-12
(PID.TID 0000.0001)     ;
(PID.TID 0000.0001) cg2dTargetResWunit =   /* CG2d target residual [W units] */
(PID.TID 0000.0001)                -1.000000000000000E+00
(PID.TID 0000.0001)     ;
(PID.TID 0000.0001) cg2dPreCondFreq =   /* Freq. for updating cg2d preconditioner */
(PID.TID 0000.0001)                       1
(PID.TID 0000.0001)     ;
(PID.TID 0000.0001) useSRCGSolver =  /* use single reduction CG solver(s) */
(PID.TID 0000.0001)                   F
(PID.TID 0000.0001)     ;
(PID.TID 0000.0001) printResidualFreq = /* Freq. for printing CG residual */
(PID.TID 0000.0001)                       0
(PID.TID 0000.0001)     ;
(PID.TID 0000.0001) //
(PID.TID 0000.0001) // Time stepping paramters ( PARM03 in namelist )
(PID.TID 0000.0001) //
(PID.TID 0000.0001) deltaTMom =   /* Momentum equation timestep ( s ) */
(PID.TID 0000.0001)                 1.000000000000000E+02
(PID.TID 0000.0001)     ;
(PID.TID 0000.0001) deltaTFreeSurf = /* FreeSurface equation timestep ( s ) */
(PID.TID 0000.0001)                 1.000000000000000E+02
(PID.TID 0000.0001)     ;
(PID.TID 0000.0001) dTtracerLev =  /* Tracer equation timestep ( s ) */
(PID.TID 0000.0001)    55 @  1.000000000000000E+02              /* K =  1: 55 */
(PID.TID 0000.0001)     ;
(PID.TID 0000.0001) deltaTClock  =   /* Model clock timestep ( s ) */
(PID.TID 0000.0001)                 1.000000000000000E+02
(PID.TID 0000.0001)     ;
(PID.TID 0000.0001) cAdjFreq =   /* Convective adjustment interval ( s ) */
(PID.TID 0000.0001)                 1.000000000000000E+02
(PID.TID 0000.0001)     ;
(PID.TID 0000.0001) momForcingOutAB = /* =1: take Momentum Forcing out of Adams-Bash. stepping */
(PID.TID 0000.0001)                       0
(PID.TID 0000.0001)     ;
(PID.TID 0000.0001) tracForcingOutAB = /* =1: take T,S,pTr Forcing out of Adams-Bash. stepping */
(PID.TID 0000.0001)                       0
(PID.TID 0000.0001)     ;
(PID.TID 0000.0001) momDissip_In_AB = /* put Dissipation Tendency in Adams-Bash. stepping */
(PID.TID 0000.0001)                   T
(PID.TID 0000.0001)     ;
(PID.TID 0000.0001) doAB_onGtGs = /* apply AB on Tendencies (rather than on T,S)*/
(PID.TID 0000.0001)                   T
(PID.TID 0000.0001)     ;
(PID.TID 0000.0001) abEps =   /* Adams-Bashforth-2 stabilizing weight */
(PID.TID 0000.0001)                 1.000000000000000E-02
(PID.TID 0000.0001)     ;
(PID.TID 0000.0001) applyExchUV_early = /* Apply EXCH to U,V earlier in time-step */
(PID.TID 0000.0001)                   F
(PID.TID 0000.0001)     ;
(PID.TID 0000.0001) pickupStrictlyMatch= /* stop if pickup do not strictly match */
(PID.TID 0000.0001)                   T
(PID.TID 0000.0001)     ;
(PID.TID 0000.0001) nIter0   =   /* Run starting timestep number */
(PID.TID 0000.0001)                       0
(PID.TID 0000.0001)     ;
(PID.TID 0000.0001) nTimeSteps = /* Number of timesteps */
(PID.TID 0000.0001)                     865
(PID.TID 0000.0001)     ;
(PID.TID 0000.0001) nEndIter =   /* Run ending timestep number */
(PID.TID 0000.0001)                     865
(PID.TID 0000.0001)     ;
(PID.TID 0000.0001) baseTime =   /* Model base time ( s ) */
(PID.TID 0000.0001)                 0.000000000000000E+00
(PID.TID 0000.0001)     ;
(PID.TID 0000.0001) startTime =  /* Run start time ( s ) */
(PID.TID 0000.0001)                 0.000000000000000E+00
(PID.TID 0000.0001)     ;
(PID.TID 0000.0001) endTime  =   /* Integration ending time ( s ) */
(PID.TID 0000.0001)                 8.650000000000000E+04
(PID.TID 0000.0001)     ;
(PID.TID 0000.0001) pChkPtFreq = /* Permanent restart/pickup file interval ( s ) */
(PID.TID 0000.0001)                 8.640000000000000E+04
(PID.TID 0000.0001)     ;
(PID.TID 0000.0001) chkPtFreq  = /* Rolling restart/pickup file interval ( s ) */
(PID.TID 0000.0001)                 8.640000000000000E+05
(PID.TID 0000.0001)     ;
(PID.TID 0000.0001) pickup_write_mdsio =   /* Model IO flag. */
(PID.TID 0000.0001)                   T
(PID.TID 0000.0001)     ;
(PID.TID 0000.0001) pickup_read_mdsio =   /* Model IO flag. */
(PID.TID 0000.0001)                   T
(PID.TID 0000.0001)     ;
(PID.TID 0000.0001) writePickupAtEnd =   /* Model IO flag. */
(PID.TID 0000.0001)                   T
(PID.TID 0000.0001)     ;
(PID.TID 0000.0001) dumpFreq =   /* Model state write out interval ( s ). */
(PID.TID 0000.0001)                 8.640000000000000E+05
(PID.TID 0000.0001)     ;
(PID.TID 0000.0001) dumpInitAndLast= /* write out Initial & Last iter. model state */
(PID.TID 0000.0001)                   T
(PID.TID 0000.0001)     ;
(PID.TID 0000.0001) snapshot_mdsio =   /* Model IO flag. */
(PID.TID 0000.0001)                   T
(PID.TID 0000.0001)     ;
(PID.TID 0000.0001) monitorFreq =   /* Monitor output interval ( s ). */
(PID.TID 0000.0001)                 1.000000000000000E+02
(PID.TID 0000.0001)     ;
(PID.TID 0000.0001) monitorSelect = /* select group of variables to monitor */
(PID.TID 0000.0001)                       1
(PID.TID 0000.0001)     ;
(PID.TID 0000.0001) monitor_stdio =   /* Model IO flag. */
(PID.TID 0000.0001)                   T
(PID.TID 0000.0001)     ;
(PID.TID 0000.0001) externForcingPeriod =   /* forcing period (s) */
(PID.TID 0000.0001)                 0.000000000000000E+00
(PID.TID 0000.0001)     ;
(PID.TID 0000.0001) externForcingCycle =   /* period of the cyle (s). */
(PID.TID 0000.0001)                 0.000000000000000E+00
(PID.TID 0000.0001)     ;
(PID.TID 0000.0001) tauThetaClimRelax =   /* relaxation time scale (s) */
(PID.TID 0000.0001)                 0.000000000000000E+00
(PID.TID 0000.0001)     ;
(PID.TID 0000.0001) tauSaltClimRelax =   /* relaxation time scale (s) */
(PID.TID 0000.0001)                 0.000000000000000E+00
(PID.TID 0000.0001)     ;
(PID.TID 0000.0001) latBandClimRelax =   /* max. Lat. where relaxation */
(PID.TID 0000.0001)                 3.060000000000000E+05
(PID.TID 0000.0001)     ;
(PID.TID 0000.0001) //
(PID.TID 0000.0001) // Gridding paramters ( PARM04 in namelist )
(PID.TID 0000.0001) //
(PID.TID 0000.0001) usingCartesianGrid = /* Cartesian coordinates flag ( True/False ) */
(PID.TID 0000.0001)                   T
(PID.TID 0000.0001)     ;
(PID.TID 0000.0001) usingCylindricalGrid = /* Cylindrical coordinates flag ( True/False ) */
(PID.TID 0000.0001)                   F
(PID.TID 0000.0001)     ;
(PID.TID 0000.0001) usingSphericalPolarGrid = /* Spherical coordinates flag ( True/False ) */
(PID.TID 0000.0001)                   F
(PID.TID 0000.0001)     ;
(PID.TID 0000.0001) usingCurvilinearGrid = /* Curvilinear coordinates flag ( True/False ) */
(PID.TID 0000.0001)                   F
(PID.TID 0000.0001)     ;
(PID.TID 0000.0001) useMin4hFacEdges = /* set hFacW,S as minimum of adjacent hFacC factor */
(PID.TID 0000.0001)                   F
(PID.TID 0000.0001)     ;
(PID.TID 0000.0001) interViscAr_pCell = /* account for partial-cell in interior vert. viscosity */
(PID.TID 0000.0001)                   F
(PID.TID 0000.0001)     ;
(PID.TID 0000.0001) interDiffKr_pCell = /* account for partial-cell in interior vert. diffusion */
(PID.TID 0000.0001)                   F
(PID.TID 0000.0001)     ;
(PID.TID 0000.0001) pCellMix_select = /* option to enhance mixing near surface & bottom */
(PID.TID 0000.0001)                       0
(PID.TID 0000.0001)     ;
(PID.TID 0000.0001) selectSigmaCoord = /* Hybrid-Sigma Vert. Coordinate option */
(PID.TID 0000.0001)                       0
(PID.TID 0000.0001)     ;
(PID.TID 0000.0001) rSigmaBnd = /* r/sigma transition ( units of r ==  m ) */
(PID.TID 0000.0001)                 1.234567000000000E+05
(PID.TID 0000.0001)     ;
(PID.TID 0000.0001) rkSign =   /* index orientation relative to vertical coordinate */
(PID.TID 0000.0001)                -1.000000000000000E+00
(PID.TID 0000.0001)     ;
(PID.TID 0000.0001) gravitySign = /* gravity orientation relative to vertical coordinate */
(PID.TID 0000.0001)                -1.000000000000000E+00
(PID.TID 0000.0001)     ;
(PID.TID 0000.0001) seaLev_Z =  /* reference height of sea-level [m] */
(PID.TID 0000.0001)                 0.000000000000000E+00
(PID.TID 0000.0001)     ;
(PID.TID 0000.0001) top_Pres =  /* reference pressure at the top [Pa] */
(PID.TID 0000.0001)                 0.000000000000000E+00
(PID.TID 0000.0001)     ;
(PID.TID 0000.0001) mass2rUnit = /* convert mass per unit area [kg/m2] to r-units [m] */
(PID.TID 0000.0001)                 1.000000000000000E-03
(PID.TID 0000.0001)     ;
(PID.TID 0000.0001) rUnit2mass = /* convert r-units [m] to mass per unit area [kg/m2] */
(PID.TID 0000.0001)                 1.000000000000000E+03
(PID.TID 0000.0001)     ;
(PID.TID 0000.0001) drC =   /* C spacing ( units of r ) */
(PID.TID 0000.0001)                 1.000000000000000E+01,      /* K =  1 */
(PID.TID 0000.0001)    54 @  2.000000000000000E+01,             /* K =  2: 55 */
(PID.TID 0000.0001)                 1.000000000000000E+01       /* K = 56 */
(PID.TID 0000.0001)     ;
(PID.TID 0000.0001) drF =   /* W spacing ( units of r ) */
(PID.TID 0000.0001)    55 @  2.000000000000000E+01              /* K =  1: 55 */
(PID.TID 0000.0001)     ;
(PID.TID 0000.0001) delX = /* U spacing ( m - cartesian, degrees - spherical ) */
(PID.TID 0000.0001)    62 @  1.000000000000000E+03              /* I =  1: 62 */
(PID.TID 0000.0001)     ;
(PID.TID 0000.0001) delY = /* V spacing ( m - cartesian, degrees - spherical ) */
(PID.TID 0000.0001)   102 @  1.000000000000000E+03              /* J =  1:102 */
(PID.TID 0000.0001)     ;
(PID.TID 0000.0001) xgOrigin = /* X-axis origin of West  edge (cartesian: m, lat-lon: deg) */
(PID.TID 0000.0001)                -1.000000000000000E+03
(PID.TID 0000.0001)     ;
(PID.TID 0000.0001) ygOrigin = /* Y-axis origin of South edge (cartesian: m, lat-lon: deg) */
(PID.TID 0000.0001)                -2.000000000000000E+03
(PID.TID 0000.0001)     ;
(PID.TID 0000.0001) rSphere =  /* Radius ( ignored - cartesian, m - spherical ) */
(PID.TID 0000.0001)                 6.370000000000000E+06
(PID.TID 0000.0001)     ;
(PID.TID 0000.0001) deepAtmosphere = /* Deep/Shallow Atmosphere flag (True/False) */
(PID.TID 0000.0001)                   F
(PID.TID 0000.0001)     ;
(PID.TID 0000.0001) xC =  /* xC(:,1,:,1) : P-point X coord ( deg. or m if cartesian) */
(PID.TID 0000.0001)                -5.000000000000000E+02,      /* I =  1 */
(PID.TID 0000.0001)                 5.000000000000000E+02,      /* I =  2 */
(PID.TID 0000.0001)                 1.500000000000000E+03,      /* I =  3 */
(PID.TID 0000.0001)                 2.500000000000000E+03,      /* I =  4 */
(PID.TID 0000.0001)                 3.500000000000000E+03,      /* I =  5 */
(PID.TID 0000.0001)                 4.500000000000000E+03,      /* I =  6 */
(PID.TID 0000.0001)                 5.500000000000000E+03,      /* I =  7 */
(PID.TID 0000.0001)                 6.500000000000000E+03,      /* I =  8 */
(PID.TID 0000.0001)                 7.500000000000000E+03,      /* I =  9 */
(PID.TID 0000.0001)                 8.500000000000000E+03,      /* I = 10 */
(PID.TID 0000.0001)                 9.500000000000000E+03,      /* I = 11 */
(PID.TID 0000.0001)                 1.050000000000000E+04,      /* I = 12 */
(PID.TID 0000.0001)                 1.150000000000000E+04,      /* I = 13 */
(PID.TID 0000.0001)                 1.250000000000000E+04,      /* I = 14 */
(PID.TID 0000.0001)                 1.350000000000000E+04,      /* I = 15 */
(PID.TID 0000.0001)                 1.450000000000000E+04,      /* I = 16 */
(PID.TID 0000.0001)                 1.550000000000000E+04,      /* I = 17 */
(PID.TID 0000.0001)                 1.650000000000000E+04,      /* I = 18 */
(PID.TID 0000.0001)                 1.750000000000000E+04,      /* I = 19 */
(PID.TID 0000.0001)                 1.850000000000000E+04,      /* I = 20 */
(PID.TID 0000.0001)                 1.950000000000000E+04,      /* I = 21 */
(PID.TID 0000.0001)                 2.050000000000000E+04,      /* I = 22 */
(PID.TID 0000.0001)                 2.150000000000000E+04,      /* I = 23 */
(PID.TID 0000.0001)                 2.250000000000000E+04,      /* I = 24 */
(PID.TID 0000.0001)                 2.350000000000000E+04,      /* I = 25 */
(PID.TID 0000.0001)                 2.450000000000000E+04,      /* I = 26 */
(PID.TID 0000.0001)                 2.550000000000000E+04,      /* I = 27 */
(PID.TID 0000.0001)                 2.650000000000000E+04,      /* I = 28 */
(PID.TID 0000.0001)                 2.750000000000000E+04,      /* I = 29 */
(PID.TID 0000.0001)                 2.850000000000000E+04,      /* I = 30 */
(PID.TID 0000.0001)                 2.950000000000000E+04       /* I = 31 */
(PID.TID 0000.0001)     ;
(PID.TID 0000.0001) yC =  /* yC(1,:,1,:) : P-point Y coord ( deg. or m if cartesian) */
(PID.TID 0000.0001)                -1.500000000000000E+03,      /* J =  1 */
(PID.TID 0000.0001)                -5.000000000000000E+02,      /* J =  2 */
(PID.TID 0000.0001)                 5.000000000000000E+02,      /* J =  3 */
(PID.TID 0000.0001)                 1.500000000000000E+03,      /* J =  4 */
(PID.TID 0000.0001)                 2.500000000000000E+03,      /* J =  5 */
(PID.TID 0000.0001)                 3.500000000000000E+03,      /* J =  6 */
(PID.TID 0000.0001)                 4.500000000000000E+03,      /* J =  7 */
(PID.TID 0000.0001)                 5.500000000000000E+03,      /* J =  8 */
(PID.TID 0000.0001)                 6.500000000000000E+03,      /* J =  9 */
(PID.TID 0000.0001)                 7.500000000000000E+03,      /* J = 10 */
(PID.TID 0000.0001)                 8.500000000000000E+03,      /* J = 11 */
(PID.TID 0000.0001)                 9.500000000000000E+03,      /* J = 12 */
(PID.TID 0000.0001)                 1.050000000000000E+04,      /* J = 13 */
(PID.TID 0000.0001)                 1.150000000000000E+04,      /* J = 14 */
(PID.TID 0000.0001)                 1.250000000000000E+04,      /* J = 15 */
(PID.TID 0000.0001)                 1.350000000000000E+04,      /* J = 16 */
(PID.TID 0000.0001)                 1.450000000000000E+04       /* J = 17 */
(PID.TID 0000.0001)     ;
(PID.TID 0000.0001) rcoord = /* P-point R coordinate (  units of r ) */
(PID.TID 0000.0001)                -1.000000000000000E+01,      /* K =  1 */
(PID.TID 0000.0001)                -3.000000000000000E+01,      /* K =  2 */
(PID.TID 0000.0001)                -5.000000000000000E+01,      /* K =  3 */
(PID.TID 0000.0001)                -7.000000000000000E+01,      /* K =  4 */
(PID.TID 0000.0001)                -9.000000000000000E+01,      /* K =  5 */
(PID.TID 0000.0001)                -1.100000000000000E+02,      /* K =  6 */
(PID.TID 0000.0001)                -1.300000000000000E+02,      /* K =  7 */
(PID.TID 0000.0001)                -1.500000000000000E+02,      /* K =  8 */
(PID.TID 0000.0001)                -1.700000000000000E+02,      /* K =  9 */
(PID.TID 0000.0001)                -1.900000000000000E+02,      /* K = 10 */
(PID.TID 0000.0001)                -2.100000000000000E+02,      /* K = 11 */
(PID.TID 0000.0001)                -2.300000000000000E+02,      /* K = 12 */
(PID.TID 0000.0001)                -2.500000000000000E+02,      /* K = 13 */
(PID.TID 0000.0001)                -2.700000000000000E+02,      /* K = 14 */
(PID.TID 0000.0001)                -2.900000000000000E+02,      /* K = 15 */
(PID.TID 0000.0001)                -3.100000000000000E+02,      /* K = 16 */
(PID.TID 0000.0001)                -3.300000000000000E+02,      /* K = 17 */
(PID.TID 0000.0001)                -3.500000000000000E+02,      /* K = 18 */
(PID.TID 0000.0001)                -3.700000000000000E+02,      /* K = 19 */
(PID.TID 0000.0001)                -3.900000000000000E+02,      /* K = 20 */
(PID.TID 0000.0001)                -4.100000000000000E+02,      /* K = 21 */
(PID.TID 0000.0001)                -4.300000000000000E+02,      /* K = 22 */
(PID.TID 0000.0001)                -4.500000000000000E+02,      /* K = 23 */
(PID.TID 0000.0001)                -4.700000000000000E+02,      /* K = 24 */
(PID.TID 0000.0001)                -4.900000000000000E+02,      /* K = 25 */
(PID.TID 0000.0001)                -5.100000000000000E+02,      /* K = 26 */
(PID.TID 0000.0001)                -5.300000000000000E+02,      /* K = 27 */
(PID.TID 0000.0001)                -5.500000000000000E+02,      /* K = 28 */
(PID.TID 0000.0001)                -5.700000000000000E+02,      /* K = 29 */
(PID.TID 0000.0001)                -5.900000000000000E+02,      /* K = 30 */
(PID.TID 0000.0001)                -6.100000000000000E+02,      /* K = 31 */
(PID.TID 0000.0001)                -6.300000000000000E+02,      /* K = 32 */
(PID.TID 0000.0001)                -6.500000000000000E+02,      /* K = 33 */
(PID.TID 0000.0001)                -6.700000000000000E+02,      /* K = 34 */
(PID.TID 0000.0001)                -6.900000000000000E+02,      /* K = 35 */
(PID.TID 0000.0001)                -7.100000000000000E+02,      /* K = 36 */
(PID.TID 0000.0001)                -7.300000000000000E+02,      /* K = 37 */
(PID.TID 0000.0001)                -7.500000000000000E+02,      /* K = 38 */
(PID.TID 0000.0001)                -7.700000000000000E+02,      /* K = 39 */
(PID.TID 0000.0001)                -7.900000000000000E+02,      /* K = 40 */
(PID.TID 0000.0001)                -8.100000000000000E+02,      /* K = 41 */
(PID.TID 0000.0001)                -8.300000000000000E+02,      /* K = 42 */
(PID.TID 0000.0001)                -8.500000000000000E+02,      /* K = 43 */
(PID.TID 0000.0001)                -8.700000000000000E+02,      /* K = 44 */
(PID.TID 0000.0001)                -8.900000000000000E+02,      /* K = 45 */
(PID.TID 0000.0001)                -9.100000000000000E+02,      /* K = 46 */
(PID.TID 0000.0001)                -9.300000000000000E+02,      /* K = 47 */
(PID.TID 0000.0001)                -9.500000000000000E+02,      /* K = 48 */
(PID.TID 0000.0001)                -9.700000000000000E+02,      /* K = 49 */
(PID.TID 0000.0001)                -9.900000000000000E+02,      /* K = 50 */
(PID.TID 0000.0001)                -1.010000000000000E+03,      /* K = 51 */
(PID.TID 0000.0001)                -1.030000000000000E+03,      /* K = 52 */
(PID.TID 0000.0001)                -1.050000000000000E+03,      /* K = 53 */
(PID.TID 0000.0001)                -1.070000000000000E+03,      /* K = 54 */
(PID.TID 0000.0001)                -1.090000000000000E+03       /* K = 55 */
(PID.TID 0000.0001)     ;
(PID.TID 0000.0001) rF =   /* W-Interf. R coordinate (  units of r ) */
(PID.TID 0000.0001)                 0.000000000000000E+00,      /* K =  1 */
(PID.TID 0000.0001)                -2.000000000000000E+01,      /* K =  2 */
(PID.TID 0000.0001)                -4.000000000000000E+01,      /* K =  3 */
(PID.TID 0000.0001)                -6.000000000000000E+01,      /* K =  4 */
(PID.TID 0000.0001)                -8.000000000000000E+01,      /* K =  5 */
(PID.TID 0000.0001)                -1.000000000000000E+02,      /* K =  6 */
(PID.TID 0000.0001)                -1.200000000000000E+02,      /* K =  7 */
(PID.TID 0000.0001)                -1.400000000000000E+02,      /* K =  8 */
(PID.TID 0000.0001)                -1.600000000000000E+02,      /* K =  9 */
(PID.TID 0000.0001)                -1.800000000000000E+02,      /* K = 10 */
(PID.TID 0000.0001)                -2.000000000000000E+02,      /* K = 11 */
(PID.TID 0000.0001)                -2.200000000000000E+02,      /* K = 12 */
(PID.TID 0000.0001)                -2.400000000000000E+02,      /* K = 13 */
(PID.TID 0000.0001)                -2.600000000000000E+02,      /* K = 14 */
(PID.TID 0000.0001)                -2.800000000000000E+02,      /* K = 15 */
(PID.TID 0000.0001)                -3.000000000000000E+02,      /* K = 16 */
(PID.TID 0000.0001)                -3.200000000000000E+02,      /* K = 17 */
(PID.TID 0000.0001)                -3.400000000000000E+02,      /* K = 18 */
(PID.TID 0000.0001)                -3.600000000000000E+02,      /* K = 19 */
(PID.TID 0000.0001)                -3.800000000000000E+02,      /* K = 20 */
(PID.TID 0000.0001)                -4.000000000000000E+02,      /* K = 21 */
(PID.TID 0000.0001)                -4.200000000000000E+02,      /* K = 22 */
(PID.TID 0000.0001)                -4.400000000000000E+02,      /* K = 23 */
(PID.TID 0000.0001)                -4.600000000000000E+02,      /* K = 24 */
(PID.TID 0000.0001)                -4.800000000000000E+02,      /* K = 25 */
(PID.TID 0000.0001)                -5.000000000000000E+02,      /* K = 26 */
(PID.TID 0000.0001)                -5.200000000000000E+02,      /* K = 27 */
(PID.TID 0000.0001)                -5.400000000000000E+02,      /* K = 28 */
(PID.TID 0000.0001)                -5.600000000000000E+02,      /* K = 29 */
(PID.TID 0000.0001)                -5.800000000000000E+02,      /* K = 30 */
(PID.TID 0000.0001)                -6.000000000000000E+02,      /* K = 31 */
(PID.TID 0000.0001)                -6.200000000000000E+02,      /* K = 32 */
(PID.TID 0000.0001)                -6.400000000000000E+02,      /* K = 33 */
(PID.TID 0000.0001)                -6.600000000000000E+02,      /* K = 34 */
(PID.TID 0000.0001)                -6.800000000000000E+02,      /* K = 35 */
(PID.TID 0000.0001)                -7.000000000000000E+02,      /* K = 36 */
(PID.TID 0000.0001)                -7.200000000000000E+02,      /* K = 37 */
(PID.TID 0000.0001)                -7.400000000000000E+02,      /* K = 38 */
(PID.TID 0000.0001)                -7.600000000000000E+02,      /* K = 39 */
(PID.TID 0000.0001)                -7.800000000000000E+02,      /* K = 40 */
(PID.TID 0000.0001)                -8.000000000000000E+02,      /* K = 41 */
(PID.TID 0000.0001)                -8.200000000000000E+02,      /* K = 42 */
(PID.TID 0000.0001)                -8.400000000000000E+02,      /* K = 43 */
(PID.TID 0000.0001)                -8.600000000000000E+02,      /* K = 44 */
(PID.TID 0000.0001)                -8.800000000000000E+02,      /* K = 45 */
(PID.TID 0000.0001)                -9.000000000000000E+02,      /* K = 46 */
(PID.TID 0000.0001)                -9.200000000000000E+02,      /* K = 47 */
(PID.TID 0000.0001)                -9.400000000000000E+02,      /* K = 48 */
(PID.TID 0000.0001)                -9.600000000000000E+02,      /* K = 49 */
(PID.TID 0000.0001)                -9.800000000000000E+02,      /* K = 50 */
(PID.TID 0000.0001)                -1.000000000000000E+03,      /* K = 51 */
(PID.TID 0000.0001)                -1.020000000000000E+03,      /* K = 52 */
(PID.TID 0000.0001)                -1.040000000000000E+03,      /* K = 53 */
(PID.TID 0000.0001)                -1.060000000000000E+03,      /* K = 54 */
(PID.TID 0000.0001)                -1.080000000000000E+03,      /* K = 55 */
(PID.TID 0000.0001)                -1.100000000000000E+03       /* K = 56 */
(PID.TID 0000.0001)     ;
(PID.TID 0000.0001) deepFacC = /* deep-model grid factor @ cell-Center (-) */
(PID.TID 0000.0001)    55 @  1.000000000000000E+00              /* K =  1: 55 */
(PID.TID 0000.0001)     ;
(PID.TID 0000.0001) deepFacF = /* deep-model grid factor @ W-Interface (-) */
(PID.TID 0000.0001)    56 @  1.000000000000000E+00              /* K =  1: 56 */
(PID.TID 0000.0001)     ;
(PID.TID 0000.0001) rVel2wUnit = /* convert units: rVel -> wSpeed (=1 if z-coord)*/
(PID.TID 0000.0001)    56 @  1.000000000000000E+00              /* K =  1: 56 */
(PID.TID 0000.0001)     ;
(PID.TID 0000.0001) wUnit2rVel = /* convert units: wSpeed -> rVel (=1 if z-coord)*/
(PID.TID 0000.0001)    56 @  1.000000000000000E+00              /* K =  1: 56 */
(PID.TID 0000.0001)     ;
(PID.TID 0000.0001) dBdrRef = /* Vertical grad. of reference buoyancy [(m/s/r)^2] */
(PID.TID 0000.0001)    55 @  0.000000000000000E+00              /* K =  1: 55 */
(PID.TID 0000.0001)     ;
(PID.TID 0000.0001) rotateGrid = /* use rotated grid ( True/False ) */
(PID.TID 0000.0001)                   F
(PID.TID 0000.0001)     ;
(PID.TID 0000.0001) phiEuler = /* Euler angle, rotation about original z-coordinate [rad] */
(PID.TID 0000.0001)                 0.000000000000000E+00
(PID.TID 0000.0001)     ;
(PID.TID 0000.0001) thetaEuler = /* Euler angle, rotation about new x-coordinate [rad] */
(PID.TID 0000.0001)                 0.000000000000000E+00
(PID.TID 0000.0001)     ;
(PID.TID 0000.0001) psiEuler = /* Euler angle, rotation about new z-coordinate [rad] */
(PID.TID 0000.0001)                 0.000000000000000E+00
(PID.TID 0000.0001)     ;
(PID.TID 0000.0001) dxF =  /* dxF(:,1,:,1) ( units: m ) */
(PID.TID 0000.0001)    31 @  1.000000000000000E+03              /* I =  1: 31 */
(PID.TID 0000.0001)     ;
(PID.TID 0000.0001) dxF =  /* dxF(1,:,1,:) ( units: m ) */
(PID.TID 0000.0001)    17 @  1.000000000000000E+03              /* J =  1: 17 */
(PID.TID 0000.0001)     ;
(PID.TID 0000.0001) dyF =  /* dyF(:,1,:,1) ( units: m ) */
(PID.TID 0000.0001)    31 @  1.000000000000000E+03              /* I =  1: 31 */
(PID.TID 0000.0001)     ;
(PID.TID 0000.0001) dyF =  /* dyF(1,:,1,:) ( units: m ) */
(PID.TID 0000.0001)    17 @  1.000000000000000E+03              /* J =  1: 17 */
(PID.TID 0000.0001)     ;
(PID.TID 0000.0001) dxG =  /* dxG(:,1,:,1) ( units: m ) */
(PID.TID 0000.0001)    31 @  1.000000000000000E+03              /* I =  1: 31 */
(PID.TID 0000.0001)     ;
(PID.TID 0000.0001) dxG =  /* dxG(1,:,1,:) ( units: m ) */
(PID.TID 0000.0001)    17 @  1.000000000000000E+03              /* J =  1: 17 */
(PID.TID 0000.0001)     ;
(PID.TID 0000.0001) dyG =  /* dyG(:,1,:,1) ( units: m ) */
(PID.TID 0000.0001)    31 @  1.000000000000000E+03              /* I =  1: 31 */
(PID.TID 0000.0001)     ;
(PID.TID 0000.0001) dyG =  /* dyG(1,:,1,:) ( units: m ) */
(PID.TID 0000.0001)    17 @  1.000000000000000E+03              /* J =  1: 17 */
(PID.TID 0000.0001)     ;
(PID.TID 0000.0001) dxC =  /* dxC(:,1,:,1) ( units: m ) */
(PID.TID 0000.0001)    31 @  1.000000000000000E+03              /* I =  1: 31 */
(PID.TID 0000.0001)     ;
(PID.TID 0000.0001) dxC =  /* dxC(1,:,1,:) ( units: m ) */
(PID.TID 0000.0001)    17 @  1.000000000000000E+03              /* J =  1: 17 */
(PID.TID 0000.0001)     ;
(PID.TID 0000.0001) dyC =  /* dyC(:,1,:,1) ( units: m ) */
(PID.TID 0000.0001)    31 @  1.000000000000000E+03              /* I =  1: 31 */
(PID.TID 0000.0001)     ;
(PID.TID 0000.0001) dyC =  /* dyC(1,:,1,:) ( units: m ) */
(PID.TID 0000.0001)    17 @  1.000000000000000E+03              /* J =  1: 17 */
(PID.TID 0000.0001)     ;
(PID.TID 0000.0001) dxV =  /* dxV(:,1,:,1) ( units: m ) */
(PID.TID 0000.0001)    31 @  1.000000000000000E+03              /* I =  1: 31 */
(PID.TID 0000.0001)     ;
(PID.TID 0000.0001) dxV =  /* dxV(1,:,1,:) ( units: m ) */
(PID.TID 0000.0001)    17 @  1.000000000000000E+03              /* J =  1: 17 */
(PID.TID 0000.0001)     ;
(PID.TID 0000.0001) dyU =  /* dyU(:,1,:,1) ( units: m ) */
(PID.TID 0000.0001)    31 @  1.000000000000000E+03              /* I =  1: 31 */
(PID.TID 0000.0001)     ;
(PID.TID 0000.0001) dyU =  /* dyU(1,:,1,:) ( units: m ) */
(PID.TID 0000.0001)    17 @  1.000000000000000E+03              /* J =  1: 17 */
(PID.TID 0000.0001)     ;
(PID.TID 0000.0001) rA  =  /* rA (:,1,:,1) ( units: m^2 ) */
(PID.TID 0000.0001)    31 @  1.000000000000000E+06              /* I =  1: 31 */
(PID.TID 0000.0001)     ;
(PID.TID 0000.0001) rA  =  /* rA (1,:,1,:) ( units: m^2 ) */
(PID.TID 0000.0001)    17 @  1.000000000000000E+06              /* J =  1: 17 */
(PID.TID 0000.0001)     ;
(PID.TID 0000.0001) rAw =  /* rAw(:,1,:,1) ( units: m^2 ) */
(PID.TID 0000.0001)    31 @  1.000000000000000E+06              /* I =  1: 31 */
(PID.TID 0000.0001)     ;
(PID.TID 0000.0001) rAw =  /* rAw(1,:,1,:) ( units: m^2 ) */
(PID.TID 0000.0001)    17 @  1.000000000000000E+06              /* J =  1: 17 */
(PID.TID 0000.0001)     ;
(PID.TID 0000.0001) rAs =  /* rAs(:,1,:,1) ( units: m^2 ) */
(PID.TID 0000.0001)    31 @  1.000000000000000E+06              /* I =  1: 31 */
(PID.TID 0000.0001)     ;
(PID.TID 0000.0001) rAs =  /* rAs(1,:,1,:) ( units: m^2 ) */
(PID.TID 0000.0001)    17 @  1.000000000000000E+06              /* J =  1: 17 */
(PID.TID 0000.0001)     ;
(PID.TID 0000.0001) globalArea = /* Integrated horizontal Area (m^2) */
(PID.TID 0000.0001)                 5.940000000000000E+09
(PID.TID 0000.0001)     ;
(PID.TID 0000.0001) // =======================================================
(PID.TID 0000.0001) // End of Model config. summary
(PID.TID 0000.0001) // =======================================================
(PID.TID 0000.0001) 
(PID.TID 0000.0001) == Packages configuration : Check & print summary ==
(PID.TID 0000.0001) 
(PID.TID 0000.0001) OBCS_CHECK: #define ALLOW_OBCS
(PID.TID 0000.0001) OBCS_CHECK: start summary:
(PID.TID 0000.0001) useOBCSprescribe = /* prescribe OB values */
(PID.TID 0000.0001)                   T
(PID.TID 0000.0001)     ;
(PID.TID 0000.0001) useOBCSbalance = /* balance the flow through OB */
(PID.TID 0000.0001)                   T
(PID.TID 0000.0001)     ;
(PID.TID 0000.0001) OBCSbalanceSurf = /* include surf. flux in balance */
(PID.TID 0000.0001)                   F
(PID.TID 0000.0001)     ;
(PID.TID 0000.0001) OBCS_balanceFacN = /* Northern OB Factor for balancing OB flow [-] */
(PID.TID 0000.0001)                 1.000000000000000E+00
(PID.TID 0000.0001)     ;
(PID.TID 0000.0001) OBCS_balanceFacS = /* Southern OB Factor for balancing OB flow [-] */
(PID.TID 0000.0001)                 1.000000000000000E+00
(PID.TID 0000.0001)     ;
(PID.TID 0000.0001) OBCS_balanceFacE = /* Eastern  OB Factor for balancing OB flow [-] */
(PID.TID 0000.0001)                 1.000000000000000E+00
(PID.TID 0000.0001)     ;
(PID.TID 0000.0001) OBCS_balanceFacW = /* Western  OB Factor for balancing OB flow [-] */
(PID.TID 0000.0001)                 1.000000000000000E+00
(PID.TID 0000.0001)     ;
(PID.TID 0000.0001) OBCS_uvApplyFac = /* Factor to apply to U,V 2nd column/row */
(PID.TID 0000.0001)                 1.000000000000000E+00
(PID.TID 0000.0001)     ;
(PID.TID 0000.0001) OBCS_u1_adv_T = /* Temp uses upwind adv-scheme @ OB */
(PID.TID 0000.0001)                       0
(PID.TID 0000.0001)     ;
(PID.TID 0000.0001) OBCS_u1_adv_S = /* Salt uses upwind adv-scheme @ OB */
(PID.TID 0000.0001)                       0
(PID.TID 0000.0001)     ;
(PID.TID 0000.0001) OBCS_monitorFreq = /* monitor output frequency [s] */
(PID.TID 0000.0001)                 1.000000000000000E+02
(PID.TID 0000.0001)     ;
(PID.TID 0000.0001) OBCS_monSelect = /* select group of variables to monitor */
(PID.TID 0000.0001)                       0
(PID.TID 0000.0001)     ;
(PID.TID 0000.0001) useOBCStides = /* apply tidal forcing through OB */
(PID.TID 0000.0001)                   F
(PID.TID 0000.0001)     ;
(PID.TID 0000.0001) tidalPeriod = /* (s) */
(PID.TID 0000.0001)    10 @  0.000000000000000E+00              /* I =  1: 10 */
(PID.TID 0000.0001)     ;
(PID.TID 0000.0001) OB_indexNone = /* null value for OB index (i.e. no OB) */
(PID.TID 0000.0001)                     -99
(PID.TID 0000.0001)     ;
(PID.TID 0000.0001) ======== Tile bi=   1 , bj=   1 ========
(PID.TID 0000.0001)  OB_Jn = /* Northern OB local indices */
(PID.TID 0000.0001)    37 @      -99                            /* I = -2: 34 */
(PID.TID 0000.0001)  OB_Js = /* Southern OB local indices */
(PID.TID 0000.0001)    37 @      -99                            /* I = -2: 34 */
(PID.TID 0000.0001)  OB_Ie = /* Eastern OB local indices */
(PID.TID 0000.0001)    23 @      -99                            /* J = -2: 20 */
(PID.TID 0000.0001)  OB_Iw = /* Western OB local indices */
(PID.TID 0000.0001)    23 @      -99                            /* J = -2: 20 */
(PID.TID 0000.0001) OBCS_CHECK: end summary.
(PID.TID 0000.0001) OBCS_CHECK: set-up OK
(PID.TID 0000.0001) OBCS_CHECK: check Inside Mask and OB locations: OK
(PID.TID 0000.0001) SHELFICE_CHECK: #define ALLOW_SHELFICE
(PID.TID 0000.0001) 
(PID.TID 0000.0001) SHELFICE_CHECK: start of SHELFICE config. summary
(PID.TID 0000.0001) SHELFICEisOn = /* package is turned on */
(PID.TID 0000.0001)                   T
(PID.TID 0000.0001)     ;
(PID.TID 0000.0001) useISOMIPTD = /* use simple isomip thermodynamics */
(PID.TID 0000.0001)                   F
(PID.TID 0000.0001)     ;
(PID.TID 0000.0001) SHELFICEconserve = /* use a conservative form of boundary conditions */
(PID.TID 0000.0001)                   T
(PID.TID 0000.0001)     ;
(PID.TID 0000.0001) SHELFICEboundaryLayer = /* use simple boundary layer scheme to suppress noise */
(PID.TID 0000.0001)                   T
(PID.TID 0000.0001)     ;
(PID.TID 0000.0001) SHI_withBL_realFWflux = /* use real FW Flux in boundary layer scheme */
(PID.TID 0000.0001)                   T
(PID.TID 0000.0001)     ;
(PID.TID 0000.0001) SHELFICEadvDiffHeatFlux = /* use adv.-diff. instead of just diff. heat flux into the ice shelf */
(PID.TID 0000.0001)                   F
(PID.TID 0000.0001)     ;
(PID.TID 0000.0001) SHELFICEMassStepping = /* step forward ice shelf mass/thickness */
(PID.TID 0000.0001)                   T
(PID.TID 0000.0001)     ;
(PID.TID 0000.0001) no_slip_shelfice = /* use no slip boundary conditions */
(PID.TID 0000.0001)                   F
(PID.TID 0000.0001)     ;
(PID.TID 0000.0001) SHELFICEdragLinear    = /* linear drag coefficient */
(PID.TID 0000.0001)                 0.000000000000000E+00
(PID.TID 0000.0001)     ;
(PID.TID 0000.0001) SHELFICEdragQuadratic = /* quadratic drag coefficient */
(PID.TID 0000.0001)                 9.700000000000000E-03
(PID.TID 0000.0001)     ;
(PID.TID 0000.0001) SHELFICEselectDragQuadr = /* select quadratic drag option */
(PID.TID 0000.0001)                       0
(PID.TID 0000.0001)     ;
(PID.TID 0000.0001) SHELFICElatentHeat      = /* latent heat of ice */
(PID.TID 0000.0001)                 3.340000000000000E+05
(PID.TID 0000.0001)     ;
(PID.TID 0000.0001) SHELFICEheatCapacity_Cp = /* heat capacity of ice shelf */
(PID.TID 0000.0001)                 2.000000000000000E+03
(PID.TID 0000.0001)     ;
(PID.TID 0000.0001) rhoShelfice   = /* density of ice shelf */
(PID.TID 0000.0001)                 9.170000000000000E+02
(PID.TID 0000.0001)     ;
(PID.TID 0000.0001) SHELFICEkappa = /* thermal conductivity of ice shelf */
(PID.TID 0000.0001)                 1.540000000000000E-06
(PID.TID 0000.0001)     ;
(PID.TID 0000.0001) SHELFICEthetaSurface = /* surface temperature above i.s. */
(PID.TID 0000.0001)                -2.000000000000000E+01
(PID.TID 0000.0001)     ;
(PID.TID 0000.0001) SHELFICEheatTransCoeff = /* heat transfer coefficient */
(PID.TID 0000.0001)                 1.350000000000000E-02
(PID.TID 0000.0001)     ;
(PID.TID 0000.0001) SHELFICEsaltTransCoeff = /* salt transfer coefficient */
(PID.TID 0000.0001)                 2.650000000000000E-04
(PID.TID 0000.0001)     ;
(PID.TID 0000.0001) SHELFICEuseGammaFrict = /* use velocity dependent exchange coefficients */
(PID.TID 0000.0001)                   T
(PID.TID 0000.0001)     ;
(PID.TID 0000.0001) SHI_withBL_uStarTopDz = /* compute uStar from top Dz averaged uVel,vVel */
(PID.TID 0000.0001)                   F
(PID.TID 0000.0001)     ;
(PID.TID 0000.0001) shiCdrag   = /* quadr. drag coefficient for uStar */
(PID.TID 0000.0001)                 9.700000000000000E-03
(PID.TID 0000.0001)     ;
(PID.TID 0000.0001) shiZetaN   = /* parameter for gammaTurb */
(PID.TID 0000.0001)                 5.200000000000000E-02
(PID.TID 0000.0001)     ;
(PID.TID 0000.0001) shiRc      = /* parameter for gammaTurb (not used) */
(PID.TID 0000.0001)                 2.000000000000000E-01
(PID.TID 0000.0001)     ;
(PID.TID 0000.0001) shiPrandtl = /* const. Prandtl No. for gammaTurb */
(PID.TID 0000.0001)                 1.380000000000000E+01
(PID.TID 0000.0001)     ;
(PID.TID 0000.0001) shiSchmidt = /* const. Schmidt No. for gammaTurb */
(PID.TID 0000.0001)                 2.432000000000000E+03
(PID.TID 0000.0001)     ;
(PID.TID 0000.0001) shiKinVisc = /* const. kin. viscosity for gammaTurb */
(PID.TID 0000.0001)                 1.950000000000000E-06
(PID.TID 0000.0001)     ;
(PID.TID 0000.0001) SHELFICEremeshFrequency = /* Frequency (in s) of Remeshing */
(PID.TID 0000.0001)                 3.600000000000000E+03
(PID.TID 0000.0001)     ;
(PID.TID 0000.0001) SHELFICEsplitThreshold = /* hFac remesh threshold above which cell splits */
(PID.TID 0000.0001)                 1.300000000000000E+00
(PID.TID 0000.0001)     ;
(PID.TID 0000.0001) SHELFICEmergeThreshold = /* hFac remesh threshold below which cell merges */
(PID.TID 0000.0001)                 2.900000000000000E-01
(PID.TID 0000.0001)     ;
(PID.TID 0000.0001) SHELFICEloadAnomalyFile = /* file name of loaded loadAnomaly field */
(PID.TID 0000.0001)               ''
(PID.TID 0000.0001)     ;
(PID.TID 0000.0001) SHELFICEmassFile = /* file name of loaded mass field */
(PID.TID 0000.0001)               'shelficemassinit.bin'
(PID.TID 0000.0001)     ;
(PID.TID 0000.0001) SHELFICEtopoFile = /* file name of loaded under-ice topography */
(PID.TID 0000.0001)               'shelftopo.round.bin'
(PID.TID 0000.0001)     ;
(PID.TID 0000.0001) SHELFICEMassDynTendFile = /* file name of loaded dynamic mass tendency field */
(PID.TID 0000.0001)               'shelfice_dmdt.bin'
(PID.TID 0000.0001)     ;
(PID.TID 0000.0001) SHELFICEwriteState  = /* do simple standard output */
(PID.TID 0000.0001)                   T
(PID.TID 0000.0001)     ;
(PID.TID 0000.0001) SHELFICE_dump_mdsio = /* use mdsio for snapshots */
(PID.TID 0000.0001)                   T
(PID.TID 0000.0001)     ;
(PID.TID 0000.0001) SHELFICE_tave_mdsio = /* use mdsio for time averages */
(PID.TID 0000.0001)                   T
(PID.TID 0000.0001)     ;
(PID.TID 0000.0001) SHELFICE_dump_mnc   = /* use netcdf for snapshots */
(PID.TID 0000.0001)                   F
(PID.TID 0000.0001)     ;
(PID.TID 0000.0001) SHELFICE_tave_mnc   = /* use netcdf for time averages */
(PID.TID 0000.0001)                   F
(PID.TID 0000.0001)     ;
(PID.TID 0000.0001) SHELFICE_dumpFreq = /* analoguous to dumpFreq */
(PID.TID 0000.0001)                 8.640000000000000E+05
(PID.TID 0000.0001)     ;
(PID.TID 0000.0001) SHELFICE_taveFreq = /* analoguous to taveFreq */
(PID.TID 0000.0001)                 0.000000000000000E+00
(PID.TID 0000.0001)     ;
(PID.TID 0000.0001) SHELFICE_CHECK: end of SHELFICE config. summary
(PID.TID 0000.0001) GAD_CHECK: #define ALLOW_GENERIC_ADVDIFF
(PID.TID 0000.0001) // =======================================================
(PID.TID 0000.0001) // Check Model config. (CONFIG_CHECK):
(PID.TID 0000.0001) // CONFIG_CHECK : Normal End
(PID.TID 0000.0001) // =======================================================
(PID.TID 0000.0001) 
(PID.TID 0000.0001) Start initial hydrostatic pressure computation
(PID.TID 0000.0001) Pressure is predetermined for buoyancyRelation OCEANIC
(PID.TID 0000.0001) 
(PID.TID 0000.0001)  OBCS_FIELDS_LOAD: Reading initial data:         0  0.000000000000E+00
(PID.TID 0000.0001) // =======================================================
(PID.TID 0000.0001) // Model current state
(PID.TID 0000.0001) // =======================================================
(PID.TID 0000.0001) 
(PID.TID 0000.0001) // =======================================================
(PID.TID 0000.0001) // Begin MONITOR dynamic field statistics
(PID.TID 0000.0001) // =======================================================
(PID.TID 0000.0001) %MON time_tsnumber                =                     0
(PID.TID 0000.0001) %MON time_secondsf                =   0.0000000000000E+00
(PID.TID 0000.0001) %MON dynstat_eta_max              =   4.9963035008906E+00
(PID.TID 0000.0001) %MON dynstat_eta_min              =  -1.4998972625420E+01
(PID.TID 0000.0001) %MON dynstat_eta_mean             =  -3.0745337438069E+00
(PID.TID 0000.0001) %MON dynstat_eta_sd               =   5.1553593969697E+00
(PID.TID 0000.0001) %MON dynstat_eta_del2             =   2.0762765408824E-01
(PID.TID 0000.0001) %MON dynstat_uvel_max             =   0.0000000000000E+00
(PID.TID 0000.0001) %MON dynstat_uvel_min             =   0.0000000000000E+00
(PID.TID 0000.0001) %MON dynstat_uvel_mean            =   0.0000000000000E+00
(PID.TID 0000.0001) %MON dynstat_uvel_sd              =   0.0000000000000E+00
(PID.TID 0000.0001) %MON dynstat_uvel_del2            =   0.0000000000000E+00
(PID.TID 0000.0001) %MON dynstat_vvel_max             =   0.0000000000000E+00
(PID.TID 0000.0001) %MON dynstat_vvel_min             =   0.0000000000000E+00
(PID.TID 0000.0001) %MON dynstat_vvel_mean            =   0.0000000000000E+00
(PID.TID 0000.0001) %MON dynstat_vvel_sd              =   0.0000000000000E+00
(PID.TID 0000.0001) %MON dynstat_vvel_del2            =   0.0000000000000E+00
(PID.TID 0000.0001) %MON dynstat_wvel_max             =  -0.0000000000000E+00
(PID.TID 0000.0001) %MON dynstat_wvel_min             =  -0.0000000000000E+00
(PID.TID 0000.0001) %MON dynstat_wvel_mean            =   0.0000000000000E+00
(PID.TID 0000.0001) %MON dynstat_wvel_sd              =   0.0000000000000E+00
(PID.TID 0000.0001) %MON dynstat_wvel_del2            =   0.0000000000000E+00
(PID.TID 0000.0001) %MON dynstat_theta_max            =   1.2000000000000E+00
(PID.TID 0000.0001) %MON dynstat_theta_min            =  -1.0000000000000E+00
(PID.TID 0000.0001) %MON dynstat_theta_mean           =   5.6915233778057E-01
(PID.TID 0000.0001) %MON dynstat_theta_sd             =   8.6861661042826E-01
(PID.TID 0000.0001) %MON dynstat_theta_del2           =   0.0000000000000E+00
(PID.TID 0000.0001) %MON dynstat_salt_max             =   3.4700000000000E+01
(PID.TID 0000.0001) %MON dynstat_salt_min             =   3.4000000000000E+01
(PID.TID 0000.0001) %MON dynstat_salt_mean            =   3.4499275743839E+01
(PID.TID 0000.0001) %MON dynstat_salt_sd              =   2.7637801240894E-01
(PID.TID 0000.0001) %MON dynstat_salt_del2            =   0.0000000000000E+00
(PID.TID 0000.0001) %MON advcfl_uvel_max              =   0.0000000000000E+00
(PID.TID 0000.0001) %MON advcfl_vvel_max              =   0.0000000000000E+00
(PID.TID 0000.0001) %MON advcfl_wvel_max              =   0.0000000000000E+00
(PID.TID 0000.0001) %MON advcfl_W_hf_max              =   0.0000000000000E+00
(PID.TID 0000.0001) %MON pe_b_mean                    =  -1.0126278070120E+00
(PID.TID 0000.0001) %MON ke_max                       =   0.0000000000000E+00
(PID.TID 0000.0001) %MON ke_mean                      =   0.0000000000000E+00
(PID.TID 0000.0001) %MON ke_vol                       =   4.2726572695618E+12
(PID.TID 0000.0001) // =======================================================
(PID.TID 0000.0001) // End MONITOR dynamic field statistics
(PID.TID 0000.0001) // =======================================================
(PID.TID 0000.0001) // =======================================================
(PID.TID 0000.0001) // Begin OBCS MONITOR field statistics
(PID.TID 0000.0001) // =======================================================
(PID.TID 0000.0001) %MON obc_N_vVel_max               =   0.0000000000000E+00
(PID.TID 0000.0001) %MON obc_N_vVel_min               =   0.0000000000000E+00
(PID.TID 0000.0001) %MON obc_N_vVel_mean              =   0.0000000000000E+00
(PID.TID 0000.0001) %MON obc_N_vVel_sd                =   0.0000000000000E+00
(PID.TID 0000.0001) %MON obc_N_vVel_Int               =   0.0000000000000E+00
(PID.TID 0000.0001) // =======================================================
(PID.TID 0000.0001) // End OBCS MONITOR field statistics
(PID.TID 0000.0001) // =======================================================
(PID.TID 0000.0001) SOLVE_FOR_PRESSURE: putPmEinXvector =    F
 cg2d: Sum(rhs),rhsMax =   4.81139563870142E+00  3.45065582706825E+02
(PID.TID 0000.0001)      cg2d_init_res =   2.52400057915400E-03
(PID.TID 0000.0001)      cg2d_iters(min,last) =      -1     104
(PID.TID 0000.0001)      cg2d_last_res =   8.56901794595372E-12
(PID.TID 0000.0001) // =======================================================
(PID.TID 0000.0001) // Begin MONITOR dynamic field statistics
(PID.TID 0000.0001) // =======================================================
(PID.TID 0000.0001) %MON time_tsnumber                =                     1
(PID.TID 0000.0001) %MON time_secondsf                =   1.0000000000000E+02
(PID.TID 0000.0001) %MON dynstat_eta_max              =   4.9944593152707E+00
(PID.TID 0000.0001) %MON dynstat_eta_min              =  -1.4998696026454E+01
(PID.TID 0000.0001) %MON dynstat_eta_mean             =  -3.0745315550029E+00
(PID.TID 0000.0001) %MON dynstat_eta_sd               =   5.1559323123149E+00
(PID.TID 0000.0001) %MON dynstat_eta_del2             =   2.0762525272029E-01
(PID.TID 0000.0001) %MON dynstat_uvel_max             =   9.5085586073385E-04
(PID.TID 0000.0001) %MON dynstat_uvel_min             =  -1.0608796312965E-03
(PID.TID 0000.0001) %MON dynstat_uvel_mean            =   7.3759117760568E-07
(PID.TID 0000.0001) %MON dynstat_uvel_sd              =   1.8633458063384E-04
(PID.TID 0000.0001) %MON dynstat_uvel_del2            =   1.0023441349757E-08
(PID.TID 0000.0001) %MON dynstat_vvel_max             =   2.2111691987128E-03
(PID.TID 0000.0001) %MON dynstat_vvel_min             =   0.0000000000000E+00
(PID.TID 0000.0001) %MON dynstat_vvel_mean            =   3.5890485081406E-04
(PID.TID 0000.0001) %MON dynstat_vvel_sd              =   3.2674876283023E-04
(PID.TID 0000.0001) %MON dynstat_vvel_del2            =   1.5186461075302E-07
(PID.TID 0000.0001) %MON dynstat_wvel_max             =   3.5162134832284E-04
(PID.TID 0000.0001) %MON dynstat_wvel_min             =  -2.1253092527399E-04
(PID.TID 0000.0001) %MON dynstat_wvel_mean            =   7.0998713908320E-06
(PID.TID 0000.0001) %MON dynstat_wvel_sd              =   2.6884763588438E-05
(PID.TID 0000.0001) %MON dynstat_wvel_del2            =   1.0370609094808E-07
(PID.TID 0000.0001) %MON dynstat_theta_max            =   1.2000000000000E+00
(PID.TID 0000.0001) %MON dynstat_theta_min            =  -1.0000000000000E+00
(PID.TID 0000.0001) %MON dynstat_theta_mean           =   5.6915369855623E-01
(PID.TID 0000.0001) %MON dynstat_theta_sd             =   8.6861533683726E-01
(PID.TID 0000.0001) %MON dynstat_theta_del2           =   4.8724120538510E-08
(PID.TID 0000.0001) %MON dynstat_salt_max             =   3.4700000000000E+01
(PID.TID 0000.0001) %MON dynstat_salt_min             =   3.4000000000000E+01
(PID.TID 0000.0001) %MON dynstat_salt_mean            =   3.4499276155781E+01
(PID.TID 0000.0001) %MON dynstat_salt_sd              =   2.7637760269233E-01
(PID.TID 0000.0001) %MON dynstat_salt_del2            =   1.5548630223069E-08
(PID.TID 0000.0001) %MON advcfl_uvel_max              =   1.0608796312965E-04
(PID.TID 0000.0001) %MON advcfl_vvel_max              =   2.2111691987128E-04
(PID.TID 0000.0001) %MON advcfl_wvel_max              =   1.7581067416142E-03
(PID.TID 0000.0001) %MON advcfl_W_hf_max              =   3.2304249544565E-03
(PID.TID 0000.0001) %MON pe_b_mean                    =  -1.0128374209724E+00
(PID.TID 0000.0001) %MON ke_max                       =   2.5567791315388E-06
(PID.TID 0000.0001) %MON ke_mean                      =   1.3479498643559E-07
(PID.TID 0000.0001) %MON ke_vol                       =   4.2726572695618E+12
(PID.TID 0000.0001) // =======================================================
(PID.TID 0000.0001) // End MONITOR dynamic field statistics
(PID.TID 0000.0001) // =======================================================
(PID.TID 0000.0001) // =======================================================
(PID.TID 0000.0001) // Begin OBCS MONITOR field statistics
(PID.TID 0000.0001) // =======================================================
(PID.TID 0000.0001) %MON obc_N_vVel_max               =   0.0000000000000E+00
(PID.TID 0000.0001) %MON obc_N_vVel_min               =   0.0000000000000E+00
(PID.TID 0000.0001) %MON obc_N_vVel_mean              =   0.0000000000000E+00
(PID.TID 0000.0001) %MON obc_N_vVel_sd                =   0.0000000000000E+00
(PID.TID 0000.0001) %MON obc_N_vVel_Int               =   0.0000000000000E+00
(PID.TID 0000.0001) // =======================================================
(PID.TID 0000.0001) // End OBCS MONITOR field statistics
(PID.TID 0000.0001) // =======================================================
 cg2d: Sum(rhs),rhsMax =   4.81248278110822E+00  3.45064695593887E+02
(PID.TID 0000.0001)      cg2d_init_res =   1.82708408028212E-04
(PID.TID 0000.0001)      cg2d_iters(min,last) =      -1     102
(PID.TID 0000.0001)      cg2d_last_res =   7.65667745875311E-12
(PID.TID 0000.0001) // =======================================================
(PID.TID 0000.0001) // Begin MONITOR dynamic field statistics
(PID.TID 0000.0001) // =======================================================
(PID.TID 0000.0001) %MON time_tsnumber                =                     2
(PID.TID 0000.0001) %MON time_secondsf                =   2.0000000000000E+02
(PID.TID 0000.0001) %MON dynstat_eta_max              =   4.9939976747610E+00
(PID.TID 0000.0001) %MON dynstat_eta_min              =  -1.5001756421058E+01
(PID.TID 0000.0001) %MON dynstat_eta_mean             =  -3.0752183442851E+00
(PID.TID 0000.0001) %MON dynstat_eta_sd               =   5.1562820903213E+00
(PID.TID 0000.0001) %MON dynstat_eta_del2             =   2.0762531236890E-01
(PID.TID 0000.0001) %MON dynstat_uvel_max             =   1.5301220920803E-03
(PID.TID 0000.0001) %MON dynstat_uvel_min             =  -1.5938812036875E-03
(PID.TID 0000.0001) %MON dynstat_uvel_mean            =  -2.7980470678556E-06
(PID.TID 0000.0001) %MON dynstat_uvel_sd              =   2.5941912038106E-04
(PID.TID 0000.0001) %MON dynstat_uvel_del2            =   8.1209912620577E-09
(PID.TID 0000.0001) %MON dynstat_vvel_max             =   2.2082667378900E-03
(PID.TID 0000.0001) %MON dynstat_vvel_min             =   3.3334649340001E-04
(PID.TID 0000.0001) %MON dynstat_vvel_mean            =   7.7461501471009E-04
(PID.TID 0000.0001) %MON dynstat_vvel_sd              =   4.0919373592175E-04
(PID.TID 0000.0001) %MON dynstat_vvel_del2            =   1.4699329409651E-07
(PID.TID 0000.0001) %MON dynstat_wvel_max             =   3.6357743007273E-04
(PID.TID 0000.0001) %MON dynstat_wvel_min             =  -1.3450972723724E-04
(PID.TID 0000.0001) %MON dynstat_wvel_mean            =   4.1088258838910E-06
(PID.TID 0000.0001) %MON dynstat_wvel_sd              =   2.7231410848162E-05
(PID.TID 0000.0001) %MON dynstat_wvel_del2            =   1.0228089161434E-07
(PID.TID 0000.0001) %MON dynstat_theta_max            =   1.2000000000000E+00
(PID.TID 0000.0001) %MON dynstat_theta_min            =  -1.0000000000000E+00
(PID.TID 0000.0001) %MON dynstat_theta_mean           =   5.6915301184495E-01
(PID.TID 0000.0001) %MON dynstat_theta_sd             =   8.6861576664857E-01
(PID.TID 0000.0001) %MON dynstat_theta_del2           =   9.6891960329613E-08
(PID.TID 0000.0001) %MON dynstat_salt_max             =   3.4700000000000E+01
(PID.TID 0000.0001) %MON dynstat_salt_min             =   3.4000000000000E+01
(PID.TID 0000.0001) %MON dynstat_salt_mean            =   3.4499275916129E+01
(PID.TID 0000.0001) %MON dynstat_salt_sd              =   2.7637773364785E-01
(PID.TID 0000.0001) %MON dynstat_salt_del2            =   3.0907837022728E-08
(PID.TID 0000.0001) %MON advcfl_uvel_max              =   1.5938812036875E-04
(PID.TID 0000.0001) %MON advcfl_vvel_max              =   2.2082667378900E-04
(PID.TID 0000.0001) %MON advcfl_wvel_max              =   1.8178871503637E-03
(PID.TID 0000.0001) %MON advcfl_W_hf_max              =   2.3353895907157E-03
(PID.TID 0000.0001) %MON pe_b_mean                    =  -1.0131146964052E+00
(PID.TID 0000.0001) %MON ke_max                       =   2.7921766486171E-06
(PID.TID 0000.0001) %MON ke_mean                      =   4.1520161183255E-07
(PID.TID 0000.0001) %MON ke_vol                       =   4.2726572825633E+12
(PID.TID 0000.0001) // =======================================================
(PID.TID 0000.0001) // End MONITOR dynamic field statistics
(PID.TID 0000.0001) // =======================================================
(PID.TID 0000.0001) // =======================================================
(PID.TID 0000.0001) // Begin OBCS MONITOR field statistics
(PID.TID 0000.0001) // =======================================================
(PID.TID 0000.0001) %MON obc_N_vVel_max               =   6.2009195890343E-04
(PID.TID 0000.0001) %MON obc_N_vVel_min               =   6.2009195890342E-04
(PID.TID 0000.0001) %MON obc_N_vVel_mean              =   6.2009195890343E-04
(PID.TID 0000.0001) %MON obc_N_vVel_sd                =  -1.0746730518289E-20
(PID.TID 0000.0001) %MON obc_N_vVel_Int               =   4.0926069287627E+04
(PID.TID 0000.0001) // =======================================================
(PID.TID 0000.0001) // End OBCS MONITOR field statistics
(PID.TID 0000.0001) // =======================================================
 cg2d: Sum(rhs),rhsMax =   4.81376873648487E+00  3.45064243262417E+02
(PID.TID 0000.0001)      cg2d_init_res =   1.23773746384938E-04
(PID.TID 0000.0001)      cg2d_iters(min,last) =      -1     100
(PID.TID 0000.0001)      cg2d_last_res =   9.33332694284892E-12
(PID.TID 0000.0001) // =======================================================
(PID.TID 0000.0001) // Begin MONITOR dynamic field statistics
(PID.TID 0000.0001) // =======================================================
(PID.TID 0000.0001) %MON time_tsnumber                =                     3
(PID.TID 0000.0001) %MON time_secondsf                =   3.0000000000000E+02
(PID.TID 0000.0001) %MON dynstat_eta_max              =   4.9951238680906E+00
(PID.TID 0000.0001) %MON dynstat_eta_min              =  -1.5006530810313E+01
(PID.TID 0000.0001) %MON dynstat_eta_mean             =  -3.0760360486952E+00
(PID.TID 0000.0001) %MON dynstat_eta_sd               =   5.1567545150242E+00
(PID.TID 0000.0001) %MON dynstat_eta_del2             =   2.0762532653823E-01
(PID.TID 0000.0001) %MON dynstat_uvel_max             =   1.7708016785198E-03
(PID.TID 0000.0001) %MON dynstat_uvel_min             =  -1.8260093454441E-03
(PID.TID 0000.0001) %MON dynstat_uvel_mean            =  -8.6175061710884E-06
(PID.TID 0000.0001) %MON dynstat_uvel_sd              =   2.4853444149955E-04
(PID.TID 0000.0001) %MON dynstat_uvel_del2            =   8.9395560492387E-09
(PID.TID 0000.0001) %MON dynstat_vvel_max             =   2.4678457526388E-03
(PID.TID 0000.0001) %MON dynstat_vvel_min             =   1.9700187594651E-04
(PID.TID 0000.0001) %MON dynstat_vvel_mean            =   1.1394141567360E-03
(PID.TID 0000.0001) %MON dynstat_vvel_sd              =   4.6738635108601E-04
(PID.TID 0000.0001) %MON dynstat_vvel_del2            =   1.7474181129981E-07
(PID.TID 0000.0001) %MON dynstat_wvel_max             =   4.2331241286115E-04
(PID.TID 0000.0001) %MON dynstat_wvel_min             =  -1.1290208614215E-04
(PID.TID 0000.0001) %MON dynstat_wvel_mean            =   4.9889461450999E-06
(PID.TID 0000.0001) %MON dynstat_wvel_sd              =   2.9228789079278E-05
(PID.TID 0000.0001) %MON dynstat_wvel_del2            =   1.2047238324384E-07
(PID.TID 0000.0001) %MON dynstat_theta_max            =   1.2000000000000E+00
(PID.TID 0000.0001) %MON dynstat_theta_min            =  -1.0000000000000E+00
(PID.TID 0000.0001) %MON dynstat_theta_mean           =   5.6915348437057E-01
(PID.TID 0000.0001) %MON dynstat_theta_sd             =   8.6861530136399E-01
(PID.TID 0000.0001) %MON dynstat_theta_del2           =   1.5391775388191E-07
(PID.TID 0000.0001) %MON dynstat_salt_max             =   3.4700000000000E+01
(PID.TID 0000.0001) %MON dynstat_salt_min             =   3.4000000000000E+01
(PID.TID 0000.0001) %MON dynstat_salt_mean            =   3.4499276042545E+01
(PID.TID 0000.0001) %MON dynstat_salt_sd              =   2.7637757792018E-01
(PID.TID 0000.0001) %MON dynstat_salt_del2            =   4.9085377688803E-08
(PID.TID 0000.0001) %MON advcfl_uvel_max              =   1.8260093454441E-04
(PID.TID 0000.0001) %MON advcfl_vvel_max              =   2.4678457526388E-04
(PID.TID 0000.0001) %MON advcfl_wvel_max              =   2.1165620643057E-03
(PID.TID 0000.0001) %MON advcfl_W_hf_max              =   2.1165620643057E-03
(PID.TID 0000.0001) %MON pe_b_mean                    =  -1.0134478448047E+00
(PID.TID 0000.0001) %MON ke_max                       =   3.3318641735495E-06
(PID.TID 0000.0001) %MON ke_mean                      =   7.8649547056777E-07
(PID.TID 0000.0001) %MON ke_vol                       =   4.2726532030349E+12
(PID.TID 0000.0001) // =======================================================
(PID.TID 0000.0001) // End MONITOR dynamic field statistics
(PID.TID 0000.0001) // =======================================================
(PID.TID 0000.0001) // =======================================================
(PID.TID 0000.0001) // Begin OBCS MONITOR field statistics
(PID.TID 0000.0001) // =======================================================
(PID.TID 0000.0001) %MON obc_N_vVel_max               =   7.3816916788046E-04
(PID.TID 0000.0001) %MON obc_N_vVel_min               =   7.3816916788043E-04
(PID.TID 0000.0001) %MON obc_N_vVel_mean              =   7.3816916788043E-04
(PID.TID 0000.0001) %MON obc_N_vVel_sd                =   2.1510270743012E-10
(PID.TID 0000.0001) %MON obc_N_vVel_Int               =   4.8719165080108E+04
(PID.TID 0000.0001) // =======================================================
(PID.TID 0000.0001) // End OBCS MONITOR field statistics
(PID.TID 0000.0001) // =======================================================
 cg2d: Sum(rhs),rhsMax =   4.81532221983456E+00  3.45064513378441E+02
(PID.TID 0000.0001)      cg2d_init_res =   6.00473189754073E-05
(PID.TID 0000.0001)      cg2d_iters(min,last) =      -1     100
(PID.TID 0000.0001)      cg2d_last_res =   8.67909161721825E-12
(PID.TID 0000.0001) // =======================================================
(PID.TID 0000.0001) // Begin MONITOR dynamic field statistics
(PID.TID 0000.0001) // =======================================================
(PID.TID 0000.0001) %MON time_tsnumber                =                     4
(PID.TID 0000.0001) %MON time_secondsf                =   4.0000000000000E+02
(PID.TID 0000.0001) %MON dynstat_eta_max              =   4.9940815284413E+00
(PID.TID 0000.0001) %MON dynstat_eta_min              =  -1.5014144367898E+01
(PID.TID 0000.0001) %MON dynstat_eta_mean             =  -3.0770311454585E+00
(PID.TID 0000.0001) %MON dynstat_eta_sd               =   5.1573696434538E+00
(PID.TID 0000.0001) %MON dynstat_eta_del2             =   2.0762533137772E-01
(PID.TID 0000.0001) %MON dynstat_uvel_max             =   1.6120504340773E-03
(PID.TID 0000.0001) %MON dynstat_uvel_min             =  -1.6470545343206E-03
(PID.TID 0000.0001) %MON dynstat_uvel_mean            =  -1.4665137670064E-05
(PID.TID 0000.0001) %MON dynstat_uvel_sd              =   1.9228715493967E-04
(PID.TID 0000.0001) %MON dynstat_uvel_del2            =   9.9126653773352E-09
(PID.TID 0000.0001) %MON dynstat_vvel_max             =   2.5800115071863E-03
(PID.TID 0000.0001) %MON dynstat_vvel_min             =   1.8304972441996E-04
(PID.TID 0000.0001) %MON dynstat_vvel_mean            =   1.4476991937215E-03
(PID.TID 0000.0001) %MON dynstat_vvel_sd              =   5.3488836082088E-04
(PID.TID 0000.0001) %MON dynstat_vvel_del2            =   2.1128957194768E-07
(PID.TID 0000.0001) %MON dynstat_wvel_max             =   5.2963321904045E-04
(PID.TID 0000.0001) %MON dynstat_wvel_min             =  -1.2032557378965E-04
(PID.TID 0000.0001) %MON dynstat_wvel_mean            =   5.4676929821661E-06
(PID.TID 0000.0001) %MON dynstat_wvel_sd              =   3.4805301004068E-05
(PID.TID 0000.0001) %MON dynstat_wvel_del2            =   1.4391954610805E-07
(PID.TID 0000.0001) %MON dynstat_theta_max            =   1.2000000000000E+00
(PID.TID 0000.0001) %MON dynstat_theta_min            =  -1.0000000000000E+00
(PID.TID 0000.0001) %MON dynstat_theta_mean           =   5.6915381729766E-01
(PID.TID 0000.0001) %MON dynstat_theta_sd             =   8.6861475038166E-01
(PID.TID 0000.0001) %MON dynstat_theta_del2           =   2.2200475977421E-07
(PID.TID 0000.0001) %MON dynstat_salt_max             =   3.4700000000000E+01
(PID.TID 0000.0001) %MON dynstat_salt_min             =   3.4000000000000E+01
(PID.TID 0000.0001) %MON dynstat_salt_mean            =   3.4499276118280E+01
(PID.TID 0000.0001) %MON dynstat_salt_sd              =   2.7637739376035E-01
(PID.TID 0000.0001) %MON dynstat_salt_del2            =   7.0784111942026E-08
(PID.TID 0000.0001) %MON advcfl_uvel_max              =   1.6470545343206E-04
(PID.TID 0000.0001) %MON advcfl_vvel_max              =   2.5800115071863E-04
(PID.TID 0000.0001) %MON advcfl_wvel_max              =   2.6481660952022E-03
(PID.TID 0000.0001) %MON advcfl_W_hf_max              =   2.6481660952022E-03
(PID.TID 0000.0001) %MON pe_b_mean                    =  -1.0138342767121E+00
(PID.TID 0000.0001) %MON ke_max                       =   3.6673701334015E-06
(PID.TID 0000.0001) %MON ke_mean                      =   1.2059737921962E-06
(PID.TID 0000.0001) %MON ke_vol                       =   4.2726483458708E+12
(PID.TID 0000.0001) // =======================================================
(PID.TID 0000.0001) // End MONITOR dynamic field statistics
(PID.TID 0000.0001) // =======================================================
(PID.TID 0000.0001) // =======================================================
(PID.TID 0000.0001) // Begin OBCS MONITOR field statistics
(PID.TID 0000.0001) // =======================================================
(PID.TID 0000.0001) %MON obc_N_vVel_max               =   8.9839307216613E-04
(PID.TID 0000.0001) %MON obc_N_vVel_min               =   8.9839307216611E-04
(PID.TID 0000.0001) %MON obc_N_vVel_mean              =   8.9839307216611E-04
(PID.TID 0000.0001) %MON obc_N_vVel_sd                =   1.5365885397436E-10
(PID.TID 0000.0001) %MON obc_N_vVel_Int               =   5.9293942762963E+04
(PID.TID 0000.0001) // =======================================================
(PID.TID 0000.0001) // End OBCS MONITOR field statistics
(PID.TID 0000.0001) // =======================================================
 cg2d: Sum(rhs),rhsMax =   4.81723272837720E+00  3.45064834922087E+02
(PID.TID 0000.0001)      cg2d_init_res =   6.03605941085235E-05
(PID.TID 0000.0001)      cg2d_iters(min,last) =      -1     100
(PID.TID 0000.0001)      cg2d_last_res =   9.91430132510524E-12
(PID.TID 0000.0001) // =======================================================
(PID.TID 0000.0001) // Begin MONITOR dynamic field statistics
(PID.TID 0000.0001) // =======================================================
(PID.TID 0000.0001) %MON time_tsnumber                =                     5
(PID.TID 0000.0001) %MON time_secondsf                =   5.0000000000000E+02
(PID.TID 0000.0001) %MON dynstat_eta_max              =   4.9909508362547E+00
(PID.TID 0000.0001) %MON dynstat_eta_min              =  -1.5021085527863E+01
(PID.TID 0000.0001) %MON dynstat_eta_mean             =  -3.0782548448125E+00
(PID.TID 0000.0001) %MON dynstat_eta_sd               =   5.1581136070378E+00
(PID.TID 0000.0001) %MON dynstat_eta_del2             =   2.0762533671298E-01
(PID.TID 0000.0001) %MON dynstat_uvel_max             =   1.1541945767020E-03
(PID.TID 0000.0001) %MON dynstat_uvel_min             =  -1.1547308674247E-03
(PID.TID 0000.0001) %MON dynstat_uvel_mean            =  -1.9465716399626E-05
(PID.TID 0000.0001) %MON dynstat_uvel_sd              =   1.2607685743683E-04
(PID.TID 0000.0001) %MON dynstat_uvel_del2            =   1.1225463189919E-08
(PID.TID 0000.0001) %MON dynstat_vvel_max             =   2.8109746302531E-03
(PID.TID 0000.0001) %MON dynstat_vvel_min             =   2.1677683055099E-04
(PID.TID 0000.0001) %MON dynstat_vvel_mean            =   1.6993904708348E-03
(PID.TID 0000.0001) %MON dynstat_vvel_sd              =   5.9175177763976E-04
(PID.TID 0000.0001) %MON dynstat_vvel_del2            =   2.5023316093881E-07
(PID.TID 0000.0001) %MON dynstat_wvel_max             =   6.3649443095374E-04
(PID.TID 0000.0001) %MON dynstat_wvel_min             =  -1.5446050740247E-04
(PID.TID 0000.0001) %MON dynstat_wvel_mean            =   5.5178570872660E-06
(PID.TID 0000.0001) %MON dynstat_wvel_sd              =   4.1208630969777E-05
(PID.TID 0000.0001) %MON dynstat_wvel_del2            =   1.6790814876035E-07
(PID.TID 0000.0001) %MON dynstat_theta_max            =   1.2000000000000E+00
(PID.TID 0000.0001) %MON dynstat_theta_min            =  -1.0000000000000E+00
(PID.TID 0000.0001) %MON dynstat_theta_mean           =   5.6915404749115E-01
(PID.TID 0000.0001) %MON dynstat_theta_sd             =   8.6861417130477E-01
(PID.TID 0000.0001) %MON dynstat_theta_del2           =   3.0140016148810E-07
(PID.TID 0000.0001) %MON dynstat_salt_max             =   3.4700000000000E+01
(PID.TID 0000.0001) %MON dynstat_salt_min             =   3.4000000000000E+01
(PID.TID 0000.0001) %MON dynstat_salt_mean            =   3.4499276156835E+01
(PID.TID 0000.0001) %MON dynstat_salt_sd              =   2.7637720082817E-01
(PID.TID 0000.0001) %MON dynstat_salt_del2            =   9.6082678704858E-08
(PID.TID 0000.0001) %MON advcfl_uvel_max              =   1.1547308674247E-04
(PID.TID 0000.0001) %MON advcfl_vvel_max              =   2.8109746302531E-04
(PID.TID 0000.0001) %MON advcfl_wvel_max              =   3.1824721547687E-03
(PID.TID 0000.0001) %MON advcfl_W_hf_max              =   3.1824721547687E-03
(PID.TID 0000.0001) %MON pe_b_mean                    =  -1.0142727886391E+00
(PID.TID 0000.0001) %MON ke_max                       =   4.3808366400836E-06
(PID.TID 0000.0001) %MON ke_mean                      =   1.6221709417004E-06
(PID.TID 0000.0001) %MON ke_vol                       =   4.2726424349960E+12
(PID.TID 0000.0001) // =======================================================
(PID.TID 0000.0001) // End MONITOR dynamic field statistics
(PID.TID 0000.0001) // =======================================================
(PID.TID 0000.0001) // =======================================================
(PID.TID 0000.0001) // Begin OBCS MONITOR field statistics
(PID.TID 0000.0001) // =======================================================
(PID.TID 0000.0001) %MON obc_N_vVel_max               =   1.1045447967086E-03
(PID.TID 0000.0001) %MON obc_N_vVel_min               =   1.1045447967086E-03
(PID.TID 0000.0001) %MON obc_N_vVel_mean              =   1.1045447967086E-03
(PID.TID 0000.0001) %MON obc_N_vVel_sd                =  -2.9857911390714E-20
(PID.TID 0000.0001) %MON obc_N_vVel_Int               =   7.2899956582770E+04
(PID.TID 0000.0001) // =======================================================
(PID.TID 0000.0001) // End OBCS MONITOR field statistics
(PID.TID 0000.0001) // =======================================================
 cg2d: Sum(rhs),rhsMax =   4.81954137242716E+00  3.45064932621665E+02
(PID.TID 0000.0001)      cg2d_init_res =   6.04988720511511E-05
(PID.TID 0000.0001)      cg2d_iters(min,last) =      -1      99
(PID.TID 0000.0001)      cg2d_last_res =   9.62055922604258E-12
(PID.TID 0000.0001) // =======================================================
(PID.TID 0000.0001) // Begin MONITOR dynamic field statistics
(PID.TID 0000.0001) // =======================================================
(PID.TID 0000.0001) %MON time_tsnumber                =                     6
(PID.TID 0000.0001) %MON time_secondsf                =   6.0000000000000E+02
(PID.TID 0000.0001) %MON dynstat_eta_max              =   4.9901172241623E+00
(PID.TID 0000.0001) %MON dynstat_eta_min              =  -1.5026673637679E+01
(PID.TID 0000.0001) %MON dynstat_eta_mean             =  -3.0797309610072E+00
(PID.TID 0000.0001) %MON dynstat_eta_sd               =   5.1589520415277E+00
(PID.TID 0000.0001) %MON dynstat_eta_del2             =   2.0762534324564E-01
(PID.TID 0000.0001) %MON dynstat_uvel_max             =   5.8237041694298E-04
(PID.TID 0000.0001) %MON dynstat_uvel_min             =  -5.4999291838831E-04
(PID.TID 0000.0001) %MON dynstat_uvel_mean            =  -2.2041350516688E-05
(PID.TID 0000.0001) %MON dynstat_uvel_sd              =   7.7976270971101E-05
(PID.TID 0000.0001) %MON dynstat_uvel_del2            =   1.3118696080529E-08
(PID.TID 0000.0001) %MON dynstat_vvel_max             =   2.9915258681372E-03
(PID.TID 0000.0001) %MON dynstat_vvel_min             =   2.6289009078884E-04
(PID.TID 0000.0001) %MON dynstat_vvel_mean            =   1.8984445687080E-03
(PID.TID 0000.0001) %MON dynstat_vvel_sd              =   6.2162885544900E-04
(PID.TID 0000.0001) %MON dynstat_vvel_del2            =   2.8406530110756E-07
(PID.TID 0000.0001) %MON dynstat_wvel_max             =   7.2601706111593E-04
(PID.TID 0000.0001) %MON dynstat_wvel_min             =  -1.8237033103701E-04
(PID.TID 0000.0001) %MON dynstat_wvel_mean            =   5.1823688085323E-06
(PID.TID 0000.0001) %MON dynstat_wvel_sd              =   4.6840942680407E-05
(PID.TID 0000.0001) %MON dynstat_wvel_del2            =   1.8696353807392E-07
(PID.TID 0000.0001) %MON dynstat_theta_max            =   1.2000000000000E+00
(PID.TID 0000.0001) %MON dynstat_theta_min            =  -1.0000000000000E+00
(PID.TID 0000.0001) %MON dynstat_theta_mean           =   5.6915422904673E-01
(PID.TID 0000.0001) %MON dynstat_theta_sd             =   8.6861360333884E-01
(PID.TID 0000.0001) %MON dynstat_theta_del2           =   3.8975608967814E-07
(PID.TID 0000.0001) %MON dynstat_salt_max             =   3.4700000000000E+01
(PID.TID 0000.0001) %MON dynstat_salt_min             =   3.4000000000000E+01
(PID.TID 0000.0001) %MON dynstat_salt_mean            =   3.4499276177067E+01
(PID.TID 0000.0001) %MON dynstat_salt_sd              =   2.7637701233405E-01
(PID.TID 0000.0001) %MON dynstat_salt_del2            =   1.2423521266038E-07
(PID.TID 0000.0001) %MON advcfl_uvel_max              =   5.8237041694298E-05
(PID.TID 0000.0001) %MON advcfl_vvel_max              =   2.9915258681372E-04
(PID.TID 0000.0001) %MON advcfl_wvel_max              =   3.6300853055797E-03
(PID.TID 0000.0001) %MON advcfl_W_hf_max              =   3.6300853055797E-03
(PID.TID 0000.0001) %MON pe_b_mean                    =  -1.0147575005653E+00
(PID.TID 0000.0001) %MON ke_max                       =   4.9932778477348E-06
(PID.TID 0000.0001) %MON ke_mean                      =   1.9914479111682E-06
(PID.TID 0000.0001) %MON ke_vol                       =   4.2726351662218E+12
(PID.TID 0000.0001) // =======================================================
(PID.TID 0000.0001) // End MONITOR dynamic field statistics
(PID.TID 0000.0001) // =======================================================
(PID.TID 0000.0001) // =======================================================
(PID.TID 0000.0001) // Begin OBCS MONITOR field statistics
(PID.TID 0000.0001) // =======================================================
(PID.TID 0000.0001) %MON obc_N_vVel_max               =   1.3319792532085E-03
(PID.TID 0000.0001) %MON obc_N_vVel_min               =   1.3319792532085E-03
(PID.TID 0000.0001) %MON obc_N_vVel_mean              =   1.3319792532085E-03
(PID.TID 0000.0001) %MON obc_N_vVel_sd                =  -5.2939559203394E-20
(PID.TID 0000.0001) %MON obc_N_vVel_Int               =   8.7910630711762E+04
(PID.TID 0000.0001) // =======================================================
(PID.TID 0000.0001) // End OBCS MONITOR field statistics
(PID.TID 0000.0001) // =======================================================
 cg2d: Sum(rhs),rhsMax =   4.82222222784049E+00  3.45064836675178E+02
(PID.TID 0000.0001)      cg2d_init_res =   6.11753487197070E-05
(PID.TID 0000.0001)      cg2d_iters(min,last) =      -1      99
(PID.TID 0000.0001)      cg2d_last_res =   8.55769621587011E-12
(PID.TID 0000.0001) // =======================================================
(PID.TID 0000.0001) // Begin MONITOR dynamic field statistics
(PID.TID 0000.0001) // =======================================================
(PID.TID 0000.0001) %MON time_tsnumber                =                     7
(PID.TID 0000.0001) %MON time_secondsf                =   7.0000000000000E+02
(PID.TID 0000.0001) %MON dynstat_eta_max              =   4.9888749578795E+00
(PID.TID 0000.0001) %MON dynstat_eta_min              =  -1.5030978580907E+01
(PID.TID 0000.0001) %MON dynstat_eta_mean             =  -3.0814431952985E+00
(PID.TID 0000.0001) %MON dynstat_eta_sd               =   5.1598428419771E+00
(PID.TID 0000.0001) %MON dynstat_eta_del2             =   2.0762535094374E-01
(PID.TID 0000.0001) %MON dynstat_uvel_max             =   1.4771433391658E-04
(PID.TID 0000.0001) %MON dynstat_uvel_min             =  -1.9912836721581E-04
(PID.TID 0000.0001) %MON dynstat_uvel_mean            =  -2.1967269867437E-05
(PID.TID 0000.0001) %MON dynstat_uvel_sd              =   6.2138754574934E-05
(PID.TID 0000.0001) %MON dynstat_uvel_del2            =   1.5447768462844E-08
(PID.TID 0000.0001) %MON dynstat_vvel_max             =   3.2652720719538E-03
(PID.TID 0000.0001) %MON dynstat_vvel_min             =   3.0099599267430E-04
(PID.TID 0000.0001) %MON dynstat_vvel_mean            =   2.0465020861310E-03
(PID.TID 0000.0001) %MON dynstat_vvel_sd              =   6.2174611904293E-04
(PID.TID 0000.0001) %MON dynstat_vvel_del2            =   3.0722630433507E-07
(PID.TID 0000.0001) %MON dynstat_wvel_max             =   7.9260606484735E-04
(PID.TID 0000.0001) %MON dynstat_wvel_min             =  -2.0161082124772E-04
(PID.TID 0000.0001) %MON dynstat_wvel_mean            =   4.5875720700214E-06
(PID.TID 0000.0001) %MON dynstat_wvel_sd              =   5.0675228451843E-05
(PID.TID 0000.0001) %MON dynstat_wvel_del2            =   1.9690133065179E-07
(PID.TID 0000.0001) %MON dynstat_theta_max            =   1.2000000000000E+00
(PID.TID 0000.0001) %MON dynstat_theta_min            =  -1.0000000000000E+00
(PID.TID 0000.0001) %MON dynstat_theta_mean           =   5.6915440875512E-01
(PID.TID 0000.0001) %MON dynstat_theta_sd             =   8.6861305817937E-01
(PID.TID 0000.0001) %MON dynstat_theta_del2           =   4.8270573157736E-07
(PID.TID 0000.0001) %MON dynstat_salt_max             =   3.4700000000000E+01
(PID.TID 0000.0001) %MON dynstat_salt_min             =   3.4000000000000E+01
(PID.TID 0000.0001) %MON dynstat_salt_mean            =   3.4499276194828E+01
(PID.TID 0000.0001) %MON dynstat_salt_sd              =   2.7637683207634E-01
(PID.TID 0000.0001) %MON dynstat_salt_del2            =   1.5385420861991E-07
(PID.TID 0000.0001) %MON advcfl_uvel_max              =   1.9912836721581E-05
(PID.TID 0000.0001) %MON advcfl_vvel_max              =   3.2652720719538E-04
(PID.TID 0000.0001) %MON advcfl_wvel_max              =   3.9630303242368E-03
(PID.TID 0000.0001) %MON advcfl_W_hf_max              =   3.9630303242368E-03
(PID.TID 0000.0001) %MON pe_b_mean                    =  -1.0152773238582E+00
(PID.TID 0000.0001) %MON ke_max                       =   5.3395862715914E-06
(PID.TID 0000.0001) %MON ke_mean                      =   2.2800827875341E-06
(PID.TID 0000.0001) %MON ke_vol                       =   4.2726263980916E+12
(PID.TID 0000.0001) // =======================================================
(PID.TID 0000.0001) // End MONITOR dynamic field statistics
(PID.TID 0000.0001) // =======================================================
(PID.TID 0000.0001) // =======================================================
(PID.TID 0000.0001) // Begin OBCS MONITOR field statistics
(PID.TID 0000.0001) // =======================================================
(PID.TID 0000.0001) %MON obc_N_vVel_max               =   1.5446573398499E-03
(PID.TID 0000.0001) %MON obc_N_vVel_min               =   1.5446573398499E-03
(PID.TID 0000.0001) %MON obc_N_vVel_mean              =   1.5446573398499E-03
(PID.TID 0000.0001) %MON obc_N_vVel_sd                =   2.7991167825052E-10
(PID.TID 0000.0001) %MON obc_N_vVel_Int               =   1.0194738443009E+05
(PID.TID 0000.0001) // =======================================================
(PID.TID 0000.0001) // End OBCS MONITOR field statistics
(PID.TID 0000.0001) // =======================================================
 cg2d: Sum(rhs),rhsMax =   4.82519822990222E+00  3.45064619886415E+02
(PID.TID 0000.0001)      cg2d_init_res =   6.21803937132398E-05
(PID.TID 0000.0001)      cg2d_iters(min,last) =      -1     101
(PID.TID 0000.0001)      cg2d_last_res =   8.48905182767484E-12
(PID.TID 0000.0001) // =======================================================
(PID.TID 0000.0001) // Begin MONITOR dynamic field statistics
(PID.TID 0000.0001) // =======================================================
(PID.TID 0000.0001) %MON time_tsnumber                =                     8
(PID.TID 0000.0001) %MON time_secondsf                =   8.0000000000000E+02
(PID.TID 0000.0001) %MON dynstat_eta_max              =   4.9868675271662E+00
(PID.TID 0000.0001) %MON dynstat_eta_min              =  -1.5034459998374E+01
(PID.TID 0000.0001) %MON dynstat_eta_mean             =  -3.0833429501441E+00
(PID.TID 0000.0001) %MON dynstat_eta_sd               =   5.1607448088015E+00
(PID.TID 0000.0001) %MON dynstat_eta_del2             =   2.0762535938189E-01
(PID.TID 0000.0001) %MON dynstat_uvel_max             =   3.1486698080951E-04
(PID.TID 0000.0001) %MON dynstat_uvel_min             =  -1.8891463024451E-04
(PID.TID 0000.0001) %MON dynstat_uvel_mean            =  -1.9291393173680E-05
(PID.TID 0000.0001) %MON dynstat_uvel_sd              =   5.9001701058864E-05
(PID.TID 0000.0001) %MON dynstat_uvel_del2            =   1.7897532379463E-08
(PID.TID 0000.0001) %MON dynstat_vvel_max             =   3.4824865031826E-03
(PID.TID 0000.0001) %MON dynstat_vvel_min             =   3.1690060174405E-04
(PID.TID 0000.0001) %MON dynstat_vvel_mean            =   2.1408726349797E-03
(PID.TID 0000.0001) %MON dynstat_vvel_sd              =   5.9767227926397E-04
(PID.TID 0000.0001) %MON dynstat_vvel_del2            =   3.1746196201854E-07
(PID.TID 0000.0001) %MON dynstat_wvel_max             =   8.2334139638775E-04
(PID.TID 0000.0001) %MON dynstat_wvel_min             =  -2.1260711890896E-04
(PID.TID 0000.0001) %MON dynstat_wvel_mean            =   3.8695380220729E-06
(PID.TID 0000.0001) %MON dynstat_wvel_sd              =   5.2157772636397E-05
(PID.TID 0000.0001) %MON dynstat_wvel_del2            =   1.9579493687341E-07
(PID.TID 0000.0001) %MON dynstat_theta_max            =   1.2000000000000E+00
(PID.TID 0000.0001) %MON dynstat_theta_min            =  -1.0000000000000E+00
(PID.TID 0000.0001) %MON dynstat_theta_mean           =   5.6915461821684E-01
(PID.TID 0000.0001) %MON dynstat_theta_sd             =   8.6861253669158E-01
(PID.TID 0000.0001) %MON dynstat_theta_del2           =   5.7492569213457E-07
(PID.TID 0000.0001) %MON dynstat_salt_max             =   3.4700000000000E+01
(PID.TID 0000.0001) %MON dynstat_salt_min             =   3.4000000000000E+01
(PID.TID 0000.0001) %MON dynstat_salt_mean            =   3.4499276221234E+01
(PID.TID 0000.0001) %MON dynstat_salt_sd              =   2.7637666028505E-01
(PID.TID 0000.0001) %MON dynstat_salt_del2            =   1.8324615117645E-07
(PID.TID 0000.0001) %MON advcfl_uvel_max              =   3.1486698080951E-05
(PID.TID 0000.0001) %MON advcfl_vvel_max              =   3.4824865031826E-04
(PID.TID 0000.0001) %MON advcfl_wvel_max              =   4.1167069819388E-03
(PID.TID 0000.0001) %MON advcfl_W_hf_max              =   4.1167069819388E-03
(PID.TID 0000.0001) %MON pe_b_mean                    =  -1.0158179156105E+00
(PID.TID 0000.0001) %MON ke_max                       =   5.9663119799801E-06
(PID.TID 0000.0001) %MON ke_mean                      =   2.4606062398371E-06
(PID.TID 0000.0001) %MON ke_vol                       =   4.2726162274199E+12
(PID.TID 0000.0001) // =======================================================
(PID.TID 0000.0001) // End MONITOR dynamic field statistics
(PID.TID 0000.0001) // =======================================================
(PID.TID 0000.0001) // =======================================================
(PID.TID 0000.0001) // Begin OBCS MONITOR field statistics
(PID.TID 0000.0001) // =======================================================
(PID.TID 0000.0001) %MON obc_N_vVel_max               =   1.7135008669580E-03
(PID.TID 0000.0001) %MON obc_N_vVel_min               =   1.7135008669579E-03
(PID.TID 0000.0001) %MON obc_N_vVel_mean              =   1.7135008669579E-03
(PID.TID 0000.0001) %MON obc_N_vVel_sd                =   4.4425069128843E-10
(PID.TID 0000.0001) %MON obc_N_vVel_Int               =   1.1309105721922E+05
(PID.TID 0000.0001) // =======================================================
(PID.TID 0000.0001) // End OBCS MONITOR field statistics
(PID.TID 0000.0001) // =======================================================
 cg2d: Sum(rhs),rhsMax =   4.82836718617389E+00  3.45064294144008E+02
(PID.TID 0000.0001)      cg2d_init_res =   6.21388605878993E-05
(PID.TID 0000.0001)      cg2d_iters(min,last) =      -1     101
(PID.TID 0000.0001)      cg2d_last_res =   8.98583993076340E-12
(PID.TID 0000.0001) // =======================================================
(PID.TID 0000.0001) // Begin MONITOR dynamic field statistics
(PID.TID 0000.0001) // =======================================================
(PID.TID 0000.0001) %MON time_tsnumber                =                     9
(PID.TID 0000.0001) %MON time_secondsf                =   9.0000000000000E+02
(PID.TID 0000.0001) %MON dynstat_eta_max              =   4.9842928868767E+00
(PID.TID 0000.0001) %MON dynstat_eta_min              =  -1.5037633599371E+01
(PID.TID 0000.0001) %MON dynstat_eta_mean             =  -3.0853650277133E+00
(PID.TID 0000.0001) %MON dynstat_eta_sd               =   5.1616206460436E+00
(PID.TID 0000.0001) %MON dynstat_eta_del2             =   2.0762536808813E-01
(PID.TID 0000.0001) %MON dynstat_uvel_max             =   3.8521255961199E-04
(PID.TID 0000.0001) %MON dynstat_uvel_min             =  -1.9928980477513E-04
(PID.TID 0000.0001) %MON dynstat_uvel_mean            =  -1.4424514813710E-05
(PID.TID 0000.0001) %MON dynstat_uvel_sd              =   4.9179672049034E-05
(PID.TID 0000.0001) %MON dynstat_uvel_del2            =   2.0301783704274E-08
(PID.TID 0000.0001) %MON dynstat_vvel_max             =   3.6325193304112E-03
(PID.TID 0000.0001) %MON dynstat_vvel_min             =   3.0538929294188E-04
(PID.TID 0000.0001) %MON dynstat_vvel_mean            =   2.1768437216255E-03
(PID.TID 0000.0001) %MON dynstat_vvel_sd              =   5.5884804496305E-04
(PID.TID 0000.0001) %MON dynstat_vvel_del2            =   3.1500130074686E-07
(PID.TID 0000.0001) %MON dynstat_wvel_max             =   8.1764016448392E-04
(PID.TID 0000.0001) %MON dynstat_wvel_min             =  -2.1634072541290E-04
(PID.TID 0000.0001) %MON dynstat_wvel_mean            =   3.1131926742347E-06
(PID.TID 0000.0001) %MON dynstat_wvel_sd              =   5.1208162199378E-05
(PID.TID 0000.0001) %MON dynstat_wvel_del2            =   1.8338162602614E-07
(PID.TID 0000.0001) %MON dynstat_theta_max            =   1.2000000000000E+00
(PID.TID 0000.0001) %MON dynstat_theta_min            =  -1.0000000000000E+00
(PID.TID 0000.0001) %MON dynstat_theta_mean           =   5.6915486669144E-01
(PID.TID 0000.0001) %MON dynstat_theta_sd             =   8.6861204054602E-01
(PID.TID 0000.0001) %MON dynstat_theta_del2           =   6.6090484706750E-07
(PID.TID 0000.0001) %MON dynstat_salt_max             =   3.4700000000000E+01
(PID.TID 0000.0001) %MON dynstat_salt_min             =   3.4000000000000E+01
(PID.TID 0000.0001) %MON dynstat_salt_mean            =   3.4499276260244E+01
(PID.TID 0000.0001) %MON dynstat_salt_sd              =   2.7637649736426E-01
(PID.TID 0000.0001) %MON dynstat_salt_del2            =   2.1065748342580E-07
(PID.TID 0000.0001) %MON advcfl_uvel_max              =   3.8521255961199E-05
(PID.TID 0000.0001) %MON advcfl_vvel_max              =   3.6325193304112E-04
(PID.TID 0000.0001) %MON advcfl_wvel_max              =   4.0882008224196E-03
(PID.TID 0000.0001) %MON advcfl_W_hf_max              =   4.0882008224196E-03
(PID.TID 0000.0001) %MON pe_b_mean                    =  -1.0163636618364E+00
(PID.TID 0000.0001) %MON ke_max                       =   6.2694099611841E-06
(PID.TID 0000.0001) %MON ke_mean                      =   2.5137026081806E-06
(PID.TID 0000.0001) %MON ke_vol                       =   4.2726049428761E+12
(PID.TID 0000.0001) // =======================================================
(PID.TID 0000.0001) // End MONITOR dynamic field statistics
(PID.TID 0000.0001) // =======================================================
(PID.TID 0000.0001) // =======================================================
(PID.TID 0000.0001) // Begin OBCS MONITOR field statistics
(PID.TID 0000.0001) // =======================================================
(PID.TID 0000.0001) %MON obc_N_vVel_max               =   1.8235740072752E-03
(PID.TID 0000.0001) %MON obc_N_vVel_min               =   1.8235740072752E-03
(PID.TID 0000.0001) %MON obc_N_vVel_mean              =   1.8235740072752E-03
(PID.TID 0000.0001) %MON obc_N_vVel_sd                =  -1.0460856898591E-19
(PID.TID 0000.0001) %MON obc_N_vVel_Int               =   1.2035588448017E+05
(PID.TID 0000.0001) // =======================================================
(PID.TID 0000.0001) // End OBCS MONITOR field statistics
(PID.TID 0000.0001) // =======================================================
 cg2d: Sum(rhs),rhsMax =   4.83161944403632E+00  3.45063826032474E+02
(PID.TID 0000.0001)      cg2d_init_res =   6.05547574783649E-05
(PID.TID 0000.0001)      cg2d_iters(min,last) =      -1     100
(PID.TID 0000.0001)      cg2d_last_res =   8.94022063680961E-12
(PID.TID 0000.0001) // =======================================================
(PID.TID 0000.0001) // Begin MONITOR dynamic field statistics
(PID.TID 0000.0001) // =======================================================
(PID.TID 0000.0001) %MON time_tsnumber                =                    10
(PID.TID 0000.0001) %MON time_secondsf                =   1.0000000000000E+03
(PID.TID 0000.0001) %MON dynstat_eta_max              =   4.9814201062185E+00
(PID.TID 0000.0001) %MON dynstat_eta_min              =  -1.5040869972655E+01
(PID.TID 0000.0001) %MON dynstat_eta_mean             =  -3.0874390579483E+00
(PID.TID 0000.0001) %MON dynstat_eta_sd               =   5.1624381820987E+00
(PID.TID 0000.0001) %MON dynstat_eta_del2             =   2.0762537675745E-01
(PID.TID 0000.0001) %MON dynstat_uvel_max             =   2.8557347367086E-04
(PID.TID 0000.0001) %MON dynstat_uvel_min             =  -2.0642712625696E-04
(PID.TID 0000.0001) %MON dynstat_uvel_mean            =  -8.0331870308352E-06
(PID.TID 0000.0001) %MON dynstat_uvel_sd              =   3.8809816100100E-05
(PID.TID 0000.0001) %MON dynstat_uvel_del2            =   2.2655504874659E-08
(PID.TID 0000.0001) %MON dynstat_vvel_max             =   3.6858313066030E-03
(PID.TID 0000.0001) %MON dynstat_vvel_min             =   2.7100591961560E-04
(PID.TID 0000.0001) %MON dynstat_vvel_mean            =   2.1511358243373E-03
(PID.TID 0000.0001) %MON dynstat_vvel_sd              =   5.1441347526563E-04
(PID.TID 0000.0001) %MON dynstat_vvel_del2            =   3.0173063473546E-07
(PID.TID 0000.0001) %MON dynstat_wvel_max             =   7.7756210609176E-04
(PID.TID 0000.0001) %MON dynstat_wvel_min             =  -2.1316065821081E-04
(PID.TID 0000.0001) %MON dynstat_wvel_mean            =   2.3598873012181E-06
(PID.TID 0000.0001) %MON dynstat_wvel_sd              =   4.8053248240228E-05
(PID.TID 0000.0001) %MON dynstat_wvel_del2            =   1.6043834705349E-07
(PID.TID 0000.0001) %MON dynstat_theta_max            =   1.2000000000000E+00
(PID.TID 0000.0001) %MON dynstat_theta_min            =  -1.0000000000000E+00
(PID.TID 0000.0001) %MON dynstat_theta_mean           =   5.6915514957537E-01
(PID.TID 0000.0001) %MON dynstat_theta_sd             =   8.6861157426285E-01
(PID.TID 0000.0001) %MON dynstat_theta_del2           =   7.3535475969976E-07
(PID.TID 0000.0001) %MON dynstat_salt_max             =   3.4700000000000E+01
(PID.TID 0000.0001) %MON dynstat_salt_min             =   3.4000000000000E+01
(PID.TID 0000.0001) %MON dynstat_salt_mean            =   3.4499276311254E+01
(PID.TID 0000.0001) %MON dynstat_salt_sd              =   2.7637634459208E-01
(PID.TID 0000.0001) %MON dynstat_salt_del2            =   2.3440501241831E-07
(PID.TID 0000.0001) %MON advcfl_uvel_max              =   2.8557347367086E-05
(PID.TID 0000.0001) %MON advcfl_vvel_max              =   3.6858313066030E-04
(PID.TID 0000.0001) %MON advcfl_wvel_max              =   3.8878105304588E-03
(PID.TID 0000.0001) %MON advcfl_W_hf_max              =   3.8878105304588E-03
(PID.TID 0000.0001) %MON pe_b_mean                    =  -1.0168989689643E+00
(PID.TID 0000.0001) %MON ke_max                       =   6.2985233542194E-06
(PID.TID 0000.0001) %MON ke_mean                      =   2.4330498685065E-06
(PID.TID 0000.0001) %MON ke_vol                       =   4.2725929317354E+12
(PID.TID 0000.0001) // =======================================================
(PID.TID 0000.0001) // End MONITOR dynamic field statistics
(PID.TID 0000.0001) // =======================================================
(PID.TID 0000.0001) // =======================================================
(PID.TID 0000.0001) // Begin OBCS MONITOR field statistics
(PID.TID 0000.0001) // =======================================================
(PID.TID 0000.0001) %MON obc_N_vVel_max               =   1.8702356682919E-03
(PID.TID 0000.0001) %MON obc_N_vVel_min               =   1.8702356682918E-03
(PID.TID 0000.0001) %MON obc_N_vVel_mean              =   1.8702356682919E-03
(PID.TID 0000.0001) %MON obc_N_vVel_sd                =  -2.7952087259392E-19
(PID.TID 0000.0001) %MON obc_N_vVel_Int               =   1.2343555410726E+05
(PID.TID 0000.0001) // =======================================================
(PID.TID 0000.0001) // End OBCS MONITOR field statistics
(PID.TID 0000.0001) // =======================================================
 cg2d: Sum(rhs),rhsMax =   4.83484569502449E+00  3.45063192788300E+02
(PID.TID 0000.0001)      cg2d_init_res =   5.76615256215726E-05
(PID.TID 0000.0001)      cg2d_iters(min,last) =      -1      99
(PID.TID 0000.0001)      cg2d_last_res =   8.13068138288340E-12
(PID.TID 0000.0001) // =======================================================
(PID.TID 0000.0001) // Begin MONITOR dynamic field statistics
(PID.TID 0000.0001) // =======================================================
(PID.TID 0000.0001) %MON time_tsnumber                =                    11
(PID.TID 0000.0001) %MON time_secondsf                =   1.1000000000000E+03
(PID.TID 0000.0001) %MON dynstat_eta_max              =   4.9785067940170E+00
(PID.TID 0000.0001) %MON dynstat_eta_min              =  -1.5044315662154E+01
(PID.TID 0000.0001) %MON dynstat_eta_mean             =  -3.0894949854887E+00
(PID.TID 0000.0001) %MON dynstat_eta_sd               =   5.1631719464253E+00
(PID.TID 0000.0001) %MON dynstat_eta_del2             =   2.0762538519147E-01
(PID.TID 0000.0001) %MON dynstat_uvel_max             =   3.4669434229317E-04
(PID.TID 0000.0001) %MON dynstat_uvel_min             =  -2.1107727737357E-04
(PID.TID 0000.0001) %MON dynstat_uvel_mean            =  -9.2650434853415E-07
(PID.TID 0000.0001) %MON dynstat_uvel_sd              =   4.5787377419619E-05
(PID.TID 0000.0001) %MON dynstat_uvel_del2            =   2.4956952823714E-08
(PID.TID 0000.0001) %MON dynstat_vvel_max             =   3.6473559666419E-03
(PID.TID 0000.0001) %MON dynstat_vvel_min             =   2.2469060273522E-04
(PID.TID 0000.0001) %MON dynstat_vvel_mean            =   2.0642228576687E-03
(PID.TID 0000.0001) %MON dynstat_vvel_sd              =   4.6938123016226E-04
(PID.TID 0000.0001) %MON dynstat_vvel_del2            =   2.8129625732803E-07
(PID.TID 0000.0001) %MON dynstat_wvel_max             =   7.0601374328452E-04
(PID.TID 0000.0001) %MON dynstat_wvel_min             =  -2.0296064169786E-04
(PID.TID 0000.0001) %MON dynstat_wvel_mean            =   1.6371778690061E-06
(PID.TID 0000.0001) %MON dynstat_wvel_sd              =   4.3109851186591E-05
(PID.TID 0000.0001) %MON dynstat_wvel_del2            =   1.2894463693407E-07
(PID.TID 0000.0001) %MON dynstat_theta_max            =   1.2000000000000E+00
(PID.TID 0000.0001) %MON dynstat_theta_min            =  -1.0000000000000E+00
(PID.TID 0000.0001) %MON dynstat_theta_mean           =   5.6915545717682E-01
(PID.TID 0000.0001) %MON dynstat_theta_sd             =   8.6861114226770E-01
(PID.TID 0000.0001) %MON dynstat_theta_del2           =   7.9356990772204E-07
(PID.TID 0000.0001) %MON dynstat_salt_max             =   3.4700000000000E+01
(PID.TID 0000.0001) %MON dynstat_salt_min             =   3.4000000000000E+01
(PID.TID 0000.0001) %MON dynstat_salt_mean            =   3.4499276371834E+01
(PID.TID 0000.0001) %MON dynstat_salt_sd              =   2.7637620317646E-01
(PID.TID 0000.0001) %MON dynstat_salt_del2            =   2.5299135271996E-07
(PID.TID 0000.0001) %MON advcfl_uvel_max              =   3.4669434229317E-05
(PID.TID 0000.0001) %MON advcfl_vvel_max              =   3.6473559666419E-04
(PID.TID 0000.0001) %MON advcfl_wvel_max              =   3.5300687164226E-03
(PID.TID 0000.0001) %MON advcfl_W_hf_max              =   3.5300687164226E-03
(PID.TID 0000.0001) %MON pe_b_mean                    =  -1.0174090997356E+00
(PID.TID 0000.0001) %MON ke_max                       =   5.9906849344688E-06
(PID.TID 0000.0001) %MON ke_mean                      =   2.2282266739477E-06
(PID.TID 0000.0001) %MON ke_vol                       =   4.2725806119958E+12
(PID.TID 0000.0001) // =======================================================
(PID.TID 0000.0001) // End MONITOR dynamic field statistics
(PID.TID 0000.0001) // =======================================================
(PID.TID 0000.0001) // =======================================================
(PID.TID 0000.0001) // Begin OBCS MONITOR field statistics
(PID.TID 0000.0001) // =======================================================
(PID.TID 0000.0001) %MON obc_N_vVel_max               =   1.8537879265634E-03
(PID.TID 0000.0001) %MON obc_N_vVel_min               =   1.8537879265634E-03
(PID.TID 0000.0001) %MON obc_N_vVel_mean              =   1.8537879265634E-03
(PID.TID 0000.0001) %MON obc_N_vVel_sd                =   2.2543730133955E-10
(PID.TID 0000.0001) %MON obc_N_vVel_Int               =   1.2235000315318E+05
(PID.TID 0000.0001) // =======================================================
(PID.TID 0000.0001) // End OBCS MONITOR field statistics
(PID.TID 0000.0001) // =======================================================
 cg2d: Sum(rhs),rhsMax =   4.83794145534548E+00  3.45062417477003E+02
(PID.TID 0000.0001)      cg2d_init_res =   5.34969117214377E-05
(PID.TID 0000.0001)      cg2d_iters(min,last) =      -1      98
(PID.TID 0000.0001)      cg2d_last_res =   9.02775977139052E-12
(PID.TID 0000.0001) // =======================================================
(PID.TID 0000.0001) // Begin MONITOR dynamic field statistics
(PID.TID 0000.0001) // =======================================================
(PID.TID 0000.0001) %MON time_tsnumber                =                    12
(PID.TID 0000.0001) %MON time_secondsf                =   1.2000000000000E+03
(PID.TID 0000.0001) %MON dynstat_eta_max              =   4.9757626979288E+00
(PID.TID 0000.0001) %MON dynstat_eta_min              =  -1.5047907076096E+01
(PID.TID 0000.0001) %MON dynstat_eta_mean             =  -3.0914662485069E+00
(PID.TID 0000.0001) %MON dynstat_eta_sd               =   5.1638044378541E+00
(PID.TID 0000.0001) %MON dynstat_eta_del2             =   2.0762539324771E-01
(PID.TID 0000.0001) %MON dynstat_uvel_max             =   5.7503768572809E-04
(PID.TID 0000.0001) %MON dynstat_uvel_min             =  -2.5333934100757E-04
(PID.TID 0000.0001) %MON dynstat_uvel_mean            =   6.0668566005790E-06
(PID.TID 0000.0001) %MON dynstat_uvel_sd              =   6.2744407680599E-05
(PID.TID 0000.0001) %MON dynstat_uvel_del2            =   2.7125358624140E-08
(PID.TID 0000.0001) %MON dynstat_vvel_max             =   3.5271641189389E-03
(PID.TID 0000.0001) %MON dynstat_vvel_min             =   1.7834892162139E-04
(PID.TID 0000.0001) %MON dynstat_vvel_mean            =   1.9209378304094E-03
(PID.TID 0000.0001) %MON dynstat_vvel_sd              =   4.2388035832532E-04
(PID.TID 0000.0001) %MON dynstat_vvel_del2            =   2.5973844473289E-07
(PID.TID 0000.0001) %MON dynstat_wvel_max             =   6.0659626767189E-04
(PID.TID 0000.0001) %MON dynstat_wvel_min             =  -1.8586914089466E-04
(PID.TID 0000.0001) %MON dynstat_wvel_mean            =   9.7108621764392E-07
(PID.TID 0000.0001) %MON dynstat_wvel_sd              =   3.7022270214910E-05
(PID.TID 0000.0001) %MON dynstat_wvel_del2            =   9.3644331858755E-08
(PID.TID 0000.0001) %MON dynstat_theta_max            =   1.2000000000000E+00
(PID.TID 0000.0001) %MON dynstat_theta_min            =  -1.0000000000000E+00
(PID.TID 0000.0001) %MON dynstat_theta_mean           =   5.6915577687832E-01
(PID.TID 0000.0001) %MON dynstat_theta_sd             =   8.6861074686764E-01
(PID.TID 0000.0001) %MON dynstat_theta_del2           =   8.3165838791688E-07
(PID.TID 0000.0001) %MON dynstat_salt_max             =   3.4700000000000E+01
(PID.TID 0000.0001) %MON dynstat_salt_min             =   3.4000000000000E+01
(PID.TID 0000.0001) %MON dynstat_salt_mean            =   3.4499276438433E+01
(PID.TID 0000.0001) %MON dynstat_salt_sd              =   2.7637607362443E-01
(PID.TID 0000.0001) %MON dynstat_salt_del2            =   2.6517818495416E-07
(PID.TID 0000.0001) %MON advcfl_uvel_max              =   5.7503768572809E-05
(PID.TID 0000.0001) %MON advcfl_vvel_max              =   3.5271641189389E-04
(PID.TID 0000.0001) %MON advcfl_wvel_max              =   3.0329813383594E-03
(PID.TID 0000.0001) %MON advcfl_W_hf_max              =   3.0329813383594E-03
(PID.TID 0000.0001) %MON pe_b_mean                    =  -1.0178808412540E+00
(PID.TID 0000.0001) %MON ke_max                       =   5.4024560595649E-06
(PID.TID 0000.0001) %MON ke_mean                      =   1.9244154281279E-06
(PID.TID 0000.0001) %MON ke_vol                       =   4.2725683997862E+12
(PID.TID 0000.0001) // =======================================================
(PID.TID 0000.0001) // End MONITOR dynamic field statistics
(PID.TID 0000.0001) // =======================================================
(PID.TID 0000.0001) // =======================================================
(PID.TID 0000.0001) // Begin OBCS MONITOR field statistics
(PID.TID 0000.0001) // =======================================================
(PID.TID 0000.0001) %MON obc_N_vVel_max               =   1.7773922641414E-03
(PID.TID 0000.0001) %MON obc_N_vVel_min               =   1.7773922641413E-03
(PID.TID 0000.0001) %MON obc_N_vVel_mean              =   1.7773922641413E-03
(PID.TID 0000.0001) %MON obc_N_vVel_sd                =   4.1210448423244E-10
(PID.TID 0000.0001) %MON obc_N_vVel_Int               =   1.1730788943333E+05
(PID.TID 0000.0001) // =======================================================
(PID.TID 0000.0001) // End OBCS MONITOR field statistics
(PID.TID 0000.0001) // =======================================================
 cg2d: Sum(rhs),rhsMax =   4.84081231331875E+00  3.45061565809405E+02
(PID.TID 0000.0001)      cg2d_init_res =   4.79410404281095E-05
(PID.TID 0000.0001)      cg2d_iters(min,last) =      -1      98
(PID.TID 0000.0001)      cg2d_last_res =   9.69343687647484E-12
(PID.TID 0000.0001) // =======================================================
(PID.TID 0000.0001) // Begin MONITOR dynamic field statistics
(PID.TID 0000.0001) // =======================================================
(PID.TID 0000.0001) %MON time_tsnumber                =                    13
(PID.TID 0000.0001) %MON time_secondsf                =   1.3000000000000E+03
(PID.TID 0000.0001) %MON dynstat_eta_max              =   4.9733381559604E+00
(PID.TID 0000.0001) %MON dynstat_eta_min              =  -1.5051442000146E+01
(PID.TID 0000.0001) %MON dynstat_eta_mean             =  -3.0932931048578E+00
(PID.TID 0000.0001) %MON dynstat_eta_sd               =   5.1643260285260E+00
(PID.TID 0000.0001) %MON dynstat_eta_del2             =   2.0762540079177E-01
(PID.TID 0000.0001) %MON dynstat_uvel_max             =   7.2693828499681E-04
(PID.TID 0000.0001) %MON dynstat_uvel_min             =  -3.2193850836659E-04
(PID.TID 0000.0001) %MON dynstat_uvel_mean            =   1.2217433508451E-05
(PID.TID 0000.0001) %MON dynstat_uvel_sd              =   7.4363283921244E-05
(PID.TID 0000.0001) %MON dynstat_uvel_del2            =   2.9034697552957E-08
(PID.TID 0000.0001) %MON dynstat_vvel_max             =   3.3390707345591E-03
(PID.TID 0000.0001) %MON dynstat_vvel_min             =   1.4028804286248E-04
(PID.TID 0000.0001) %MON dynstat_vvel_mean            =   1.7297365719569E-03
(PID.TID 0000.0001) %MON dynstat_vvel_sd              =   3.7588929342870E-04
(PID.TID 0000.0001) %MON dynstat_vvel_del2            =   2.4550388795318E-07
(PID.TID 0000.0001) %MON dynstat_wvel_max             =   4.8396084821004E-04
(PID.TID 0000.0001) %MON dynstat_wvel_min             =  -1.6267888206122E-04
(PID.TID 0000.0001) %MON dynstat_wvel_mean            =   3.8086512938059E-07
(PID.TID 0000.0001) %MON dynstat_wvel_sd              =   3.0841995999334E-05
(PID.TID 0000.0001) %MON dynstat_wvel_del2            =   6.8189231122745E-08
(PID.TID 0000.0001) %MON dynstat_theta_max            =   1.2000000000000E+00
(PID.TID 0000.0001) %MON dynstat_theta_min            =  -1.0000000000000E+00
(PID.TID 0000.0001) %MON dynstat_theta_mean           =   5.6915609200477E-01
(PID.TID 0000.0001) %MON dynstat_theta_sd             =   8.6861038907989E-01
(PID.TID 0000.0001) %MON dynstat_theta_del2           =   8.4689873486409E-07
(PID.TID 0000.0001) %MON dynstat_salt_max             =   3.4700000000000E+01
(PID.TID 0000.0001) %MON dynstat_salt_min             =   3.4000000000000E+01
(PID.TID 0000.0001) %MON dynstat_salt_mean            =   3.4499276506086E+01
(PID.TID 0000.0001) %MON dynstat_salt_sd              =   2.7637595604432E-01
(PID.TID 0000.0001) %MON dynstat_salt_del2            =   2.7010027081460E-07
(PID.TID 0000.0001) %MON advcfl_uvel_max              =   7.2693828499681E-05
(PID.TID 0000.0001) %MON advcfl_vvel_max              =   3.3390707345591E-04
(PID.TID 0000.0001) %MON advcfl_wvel_max              =   2.4198042410502E-03
(PID.TID 0000.0001) %MON advcfl_W_hf_max              =   2.4198042410502E-03
(PID.TID 0000.0001) %MON pe_b_mean                    =  -1.0183030482466E+00
(PID.TID 0000.0001) %MON ke_max                       =   4.6193674262465E-06
(PID.TID 0000.0001) %MON ke_mean                      =   1.5588078356237E-06
(PID.TID 0000.0001) %MON ke_vol                       =   4.2725566904839E+12
(PID.TID 0000.0001) // =======================================================
(PID.TID 0000.0001) // End MONITOR dynamic field statistics
(PID.TID 0000.0001) // =======================================================
(PID.TID 0000.0001) // =======================================================
(PID.TID 0000.0001) // Begin OBCS MONITOR field statistics
(PID.TID 0000.0001) // =======================================================
(PID.TID 0000.0001) %MON obc_N_vVel_max               =   1.6471977096961E-03
(PID.TID 0000.0001) %MON obc_N_vVel_min               =   1.6471977096961E-03
(PID.TID 0000.0001) %MON obc_N_vVel_mean              =   1.6471977096961E-03
(PID.TID 0000.0001) %MON obc_N_vVel_sd                =   2.4350011562174E-10
(PID.TID 0000.0001) %MON obc_N_vVel_Int               =   1.0871504883994E+05
(PID.TID 0000.0001) // =======================================================
(PID.TID 0000.0001) // End OBCS MONITOR field statistics
(PID.TID 0000.0001) // =======================================================
 cg2d: Sum(rhs),rhsMax =   4.84337954428899E+00  3.45060719909814E+02
(PID.TID 0000.0001)      cg2d_init_res =   4.11635192561073E-05
(PID.TID 0000.0001)      cg2d_iters(min,last) =      -1      98
(PID.TID 0000.0001)      cg2d_last_res =   9.86355166866429E-12
(PID.TID 0000.0001) // =======================================================
(PID.TID 0000.0001) // Begin MONITOR dynamic field statistics
(PID.TID 0000.0001) // =======================================================
(PID.TID 0000.0001) %MON time_tsnumber                =                    14
(PID.TID 0000.0001) %MON time_secondsf                =   1.4000000000000E+03
(PID.TID 0000.0001) %MON dynstat_eta_max              =   4.9713240231227E+00
(PID.TID 0000.0001) %MON dynstat_eta_min              =  -1.5054671498129E+01
(PID.TID 0000.0001) %MON dynstat_eta_mean             =  -3.0949259858312E+00
(PID.TID 0000.0001) %MON dynstat_eta_sd               =   5.1647335292474E+00
(PID.TID 0000.0001) %MON dynstat_eta_del2             =   2.0762540770276E-01
(PID.TID 0000.0001) %MON dynstat_uvel_max             =   7.6662452428522E-04
(PID.TID 0000.0001) %MON dynstat_uvel_min             =  -3.0813797838736E-04
(PID.TID 0000.0001) %MON dynstat_uvel_mean            =   1.6988304082094E-05
(PID.TID 0000.0001) %MON dynstat_uvel_sd              =   7.5887341058413E-05
(PID.TID 0000.0001) %MON dynstat_uvel_del2            =   3.0576605966051E-08
(PID.TID 0000.0001) %MON dynstat_vvel_max             =   3.0939986695371E-03
(PID.TID 0000.0001) %MON dynstat_vvel_min             =   1.1325560544417E-04
(PID.TID 0000.0001) %MON dynstat_vvel_mean            =   1.5012631636287E-03
(PID.TID 0000.0001) %MON dynstat_vvel_sd              =   3.2440826697335E-04
(PID.TID 0000.0001) %MON dynstat_vvel_del2            =   2.4694834926115E-07
(PID.TID 0000.0001) %MON dynstat_wvel_max             =   3.4385080431569E-04
(PID.TID 0000.0001) %MON dynstat_wvel_min             =  -1.3481714761379E-04
(PID.TID 0000.0001) %MON dynstat_wvel_mean            =  -1.2763682405506E-07
(PID.TID 0000.0001) %MON dynstat_wvel_sd              =   2.6292063320344E-05
(PID.TID 0000.0001) %MON dynstat_wvel_del2            =   7.8443050563608E-08
(PID.TID 0000.0001) %MON dynstat_theta_max            =   1.2000000000000E+00
(PID.TID 0000.0001) %MON dynstat_theta_min            =  -1.0000000000000E+00
(PID.TID 0000.0001) %MON dynstat_theta_mean           =   5.6915638202474E-01
(PID.TID 0000.0001) %MON dynstat_theta_sd             =   8.6861006980825E-01
(PID.TID 0000.0001) %MON dynstat_theta_del2           =   8.3800187602635E-07
(PID.TID 0000.0001) %MON dynstat_salt_max             =   3.4700000000000E+01
(PID.TID 0000.0001) %MON dynstat_salt_min             =   3.4000000000000E+01
(PID.TID 0000.0001) %MON dynstat_salt_mean            =   3.4499276568524E+01
(PID.TID 0000.0001) %MON dynstat_salt_sd              =   2.7637585055884E-01
(PID.TID 0000.0001) %MON dynstat_salt_del2            =   2.6734906335529E-07
(PID.TID 0000.0001) %MON advcfl_uvel_max              =   7.6662452428522E-05
(PID.TID 0000.0001) %MON advcfl_vvel_max              =   3.0939986695371E-04
(PID.TID 0000.0001) %MON advcfl_wvel_max              =   1.7192540215785E-03
(PID.TID 0000.0001) %MON advcfl_W_hf_max              =   1.7192540215785E-03
(PID.TID 0000.0001) %MON pe_b_mean                    =  -1.0186670007389E+00
(PID.TID 0000.0001) %MON ke_max                       =   3.7428562915263E-06
(PID.TID 0000.0001) %MON ke_mean                      =   1.1740038661276E-06
(PID.TID 0000.0001) %MON ke_vol                       =   4.2725458389571E+12
(PID.TID 0000.0001) // =======================================================
(PID.TID 0000.0001) // End MONITOR dynamic field statistics
(PID.TID 0000.0001) // =======================================================
(PID.TID 0000.0001) // =======================================================
(PID.TID 0000.0001) // Begin OBCS MONITOR field statistics
(PID.TID 0000.0001) // =======================================================
(PID.TID 0000.0001) %MON obc_N_vVel_max               =   1.4723671519965E-03
(PID.TID 0000.0001) %MON obc_N_vVel_min               =   1.4723671519965E-03
(PID.TID 0000.0001) %MON obc_N_vVel_mean              =   1.4723671519965E-03
(PID.TID 0000.0001) %MON obc_N_vVel_sd                =  -1.0714966782767E-19
(PID.TID 0000.0001) %MON obc_N_vVel_Int               =   9.7176232031770E+04
(PID.TID 0000.0001) // =======================================================
(PID.TID 0000.0001) // End OBCS MONITOR field statistics
(PID.TID 0000.0001) // =======================================================
 cg2d: Sum(rhs),rhsMax =   4.84558411158373E+00  3.45059951051473E+02
(PID.TID 0000.0001)      cg2d_init_res =   3.37400415690274E-05
(PID.TID 0000.0001)      cg2d_iters(min,last) =      -1      98
(PID.TID 0000.0001)      cg2d_last_res =   8.73496620198420E-12
(PID.TID 0000.0001) // =======================================================
(PID.TID 0000.0001) // Begin MONITOR dynamic field statistics
(PID.TID 0000.0001) // =======================================================
(PID.TID 0000.0001) %MON time_tsnumber                =                    15
(PID.TID 0000.0001) %MON time_secondsf                =   1.5000000000000E+03
(PID.TID 0000.0001) %MON dynstat_eta_max              =   4.9697576476598E+00
(PID.TID 0000.0001) %MON dynstat_eta_min              =  -1.5057378732276E+01
(PID.TID 0000.0001) %MON dynstat_eta_mean             =  -3.0963278080720E+00
(PID.TID 0000.0001) %MON dynstat_eta_sd               =   5.1650282250864E+00
(PID.TID 0000.0001) %MON dynstat_eta_del2             =   2.0762541385470E-01
(PID.TID 0000.0001) %MON dynstat_uvel_max             =   7.1206776105370E-04
(PID.TID 0000.0001) %MON dynstat_uvel_min             =  -2.2190740842376E-04
(PID.TID 0000.0001) %MON dynstat_uvel_mean            =   2.0086834089550E-05
(PID.TID 0000.0001) %MON dynstat_uvel_sd              =   6.8947525824142E-05
(PID.TID 0000.0001) %MON dynstat_uvel_del2            =   3.1693883046392E-08
(PID.TID 0000.0001) %MON dynstat_vvel_max             =   2.8093113543974E-03
(PID.TID 0000.0001) %MON dynstat_vvel_min             =   2.3240412757175E-05
(PID.TID 0000.0001) %MON dynstat_vvel_mean            =   1.2468202132229E-03
(PID.TID 0000.0001) %MON dynstat_vvel_sd              =   2.7076345464209E-04
(PID.TID 0000.0001) %MON dynstat_vvel_del2            =   2.6724156549173E-07
(PID.TID 0000.0001) %MON dynstat_wvel_max             =   3.3821404002812E-04
(PID.TID 0000.0001) %MON dynstat_wvel_min             =  -1.0403427874714E-04
(PID.TID 0000.0001) %MON dynstat_wvel_mean            =  -5.6127447420723E-07
(PID.TID 0000.0001) %MON dynstat_wvel_sd              =   2.5498407453118E-05
(PID.TID 0000.0001) %MON dynstat_wvel_del2            =   1.1884726010719E-07
(PID.TID 0000.0001) %MON dynstat_theta_max            =   1.2000000000000E+00
(PID.TID 0000.0001) %MON dynstat_theta_min            =  -1.0000000000000E+00
(PID.TID 0000.0001) %MON dynstat_theta_mean           =   5.6915662502724E-01
(PID.TID 0000.0001) %MON dynstat_theta_sd             =   8.6860978935444E-01
(PID.TID 0000.0001) %MON dynstat_theta_del2           =   8.0562437861189E-07
(PID.TID 0000.0001) %MON dynstat_salt_max             =   3.4700000000000E+01
(PID.TID 0000.0001) %MON dynstat_salt_min             =   3.4000000000000E+01
(PID.TID 0000.0001) %MON dynstat_salt_mean            =   3.4499276618953E+01
(PID.TID 0000.0001) %MON dynstat_salt_sd              =   2.7637575713525E-01
(PID.TID 0000.0001) %MON dynstat_salt_del2            =   2.5713610919733E-07
(PID.TID 0000.0001) %MON advcfl_uvel_max              =   7.1206776105370E-05
(PID.TID 0000.0001) %MON advcfl_vvel_max              =   2.8093113543974E-04
(PID.TID 0000.0001) %MON advcfl_wvel_max              =   1.6910702001406E-03
(PID.TID 0000.0001) %MON advcfl_W_hf_max              =   1.6910702001406E-03
(PID.TID 0000.0001) %MON pe_b_mean                    =  -1.0189665533616E+00
(PID.TID 0000.0001) %MON ke_max                       =   2.8709161228924E-06
(PID.TID 0000.0001) %MON ke_mean                      =   8.1022107575009E-07
(PID.TID 0000.0001) %MON ke_vol                       =   4.2725361396442E+12
(PID.TID 0000.0001) // =======================================================
(PID.TID 0000.0001) // End MONITOR dynamic field statistics
(PID.TID 0000.0001) // =======================================================
(PID.TID 0000.0001) // =======================================================
(PID.TID 0000.0001) // Begin OBCS MONITOR field statistics
(PID.TID 0000.0001) // =======================================================
(PID.TID 0000.0001) %MON obc_N_vVel_max               =   1.2641454186644E-03
(PID.TID 0000.0001) %MON obc_N_vVel_min               =   1.2641454186643E-03
(PID.TID 0000.0001) %MON obc_N_vVel_mean              =   1.2641454186643E-03
(PID.TID 0000.0001) %MON obc_N_vVel_sd                =   3.1446954795646E-10
(PID.TID 0000.0001) %MON obc_N_vVel_Int               =   8.3433597631846E+04
(PID.TID 0000.0001) // =======================================================
(PID.TID 0000.0001) // End OBCS MONITOR field statistics
(PID.TID 0000.0001) // =======================================================
 cg2d: Sum(rhs),rhsMax =   4.84738795947314E+00  3.45059304023926E+02
(PID.TID 0000.0001)      cg2d_init_res =   2.64675776350180E-05
(PID.TID 0000.0001)      cg2d_iters(min,last) =      -1      97
(PID.TID 0000.0001)      cg2d_last_res =   8.16966192744961E-12
(PID.TID 0000.0001) // =======================================================
(PID.TID 0000.0001) // Begin MONITOR dynamic field statistics
(PID.TID 0000.0001) // =======================================================
(PID.TID 0000.0001) %MON time_tsnumber                =                    16
(PID.TID 0000.0001) %MON time_secondsf                =   1.6000000000000E+03
(PID.TID 0000.0001) %MON dynstat_eta_max              =   4.9686327539660E+00
(PID.TID 0000.0001) %MON dynstat_eta_min              =  -1.5059424495322E+01
(PID.TID 0000.0001) %MON dynstat_eta_mean             =  -3.0974746585736E+00
(PID.TID 0000.0001) %MON dynstat_eta_sd               =   5.1652141578526E+00
(PID.TID 0000.0001) %MON dynstat_eta_del2             =   2.0762541917923E-01
(PID.TID 0000.0001) %MON dynstat_uvel_max             =   6.0004720056139E-04
(PID.TID 0000.0001) %MON dynstat_uvel_min             =  -2.0666339024400E-04
(PID.TID 0000.0001) %MON dynstat_uvel_mean            =   2.1469659081379E-05
(PID.TID 0000.0001) %MON dynstat_uvel_sd              =   5.8546789057713E-05
(PID.TID 0000.0001) %MON dynstat_uvel_del2            =   3.2383241126071E-08
(PID.TID 0000.0001) %MON dynstat_vvel_max             =   2.5021141050088E-03
(PID.TID 0000.0001) %MON dynstat_vvel_min             =  -3.0657636844129E-04
(PID.TID 0000.0001) %MON dynstat_vvel_mean            =   9.7717037753814E-04
(PID.TID 0000.0001) %MON dynstat_vvel_sd              =   2.1848215079164E-04
(PID.TID 0000.0001) %MON dynstat_vvel_del2            =   3.0240518718607E-07
(PID.TID 0000.0001) %MON dynstat_wvel_max             =   3.7099763356965E-04
(PID.TID 0000.0001) %MON dynstat_wvel_min             =  -1.8504018850212E-04
(PID.TID 0000.0001) %MON dynstat_wvel_mean            =  -9.3340758488707E-07
(PID.TID 0000.0001) %MON dynstat_wvel_sd              =   2.9099487484458E-05
(PID.TID 0000.0001) %MON dynstat_wvel_del2            =   1.6797613912034E-07
(PID.TID 0000.0001) %MON dynstat_theta_max            =   1.2000000000000E+00
(PID.TID 0000.0001) %MON dynstat_theta_min            =  -1.0000000000000E+00
(PID.TID 0000.0001) %MON dynstat_theta_mean           =   5.6915680058548E-01
(PID.TID 0000.0001) %MON dynstat_theta_sd             =   8.6860954662617E-01
(PID.TID 0000.0001) %MON dynstat_theta_del2           =   7.5216876846605E-07
(PID.TID 0000.0001) %MON dynstat_salt_max             =   3.4700000000000E+01
(PID.TID 0000.0001) %MON dynstat_salt_min             =   3.4000000000000E+01
(PID.TID 0000.0001) %MON dynstat_salt_mean            =   3.4499276650870E+01
(PID.TID 0000.0001) %MON dynstat_salt_sd              =   2.7637567527590E-01
(PID.TID 0000.0001) %MON dynstat_salt_del2            =   2.4022936357466E-07
(PID.TID 0000.0001) %MON advcfl_uvel_max              =   6.0004720056139E-05
(PID.TID 0000.0001) %MON advcfl_vvel_max              =   2.5021141050088E-04
(PID.TID 0000.0001) %MON advcfl_wvel_max              =   1.8549881678483E-03
(PID.TID 0000.0001) %MON advcfl_W_hf_max              =   1.8549881678483E-03
(PID.TID 0000.0001) %MON pe_b_mean                    =  -1.0191981046821E+00
(PID.TID 0000.0001) %MON ke_max                       =   2.0812133558406E-06
(PID.TID 0000.0001) %MON ke_mean                      =   4.9902769878523E-07
(PID.TID 0000.0001) %MON ke_vol                       =   4.2725278128201E+12
(PID.TID 0000.0001) // =======================================================
(PID.TID 0000.0001) // End MONITOR dynamic field statistics
(PID.TID 0000.0001) // =======================================================
(PID.TID 0000.0001) // =======================================================
(PID.TID 0000.0001) // Begin OBCS MONITOR field statistics
(PID.TID 0000.0001) // =======================================================
(PID.TID 0000.0001) %MON obc_N_vVel_max               =   1.0344021294698E-03
(PID.TID 0000.0001) %MON obc_N_vVel_min               =   1.0344021294697E-03
(PID.TID 0000.0001) %MON obc_N_vVel_mean              =   1.0344021294697E-03
(PID.TID 0000.0001) %MON obc_N_vVel_sd                =   2.2260149912877E-10
(PID.TID 0000.0001) %MON obc_N_vVel_Int               =   6.8270540545002E+04
(PID.TID 0000.0001) // =======================================================
(PID.TID 0000.0001) // End OBCS MONITOR field statistics
(PID.TID 0000.0001) // =======================================================
 cg2d: Sum(rhs),rhsMax =   4.84877278021307E+00  3.45058794764856E+02
(PID.TID 0000.0001)      cg2d_init_res =   2.01884289254354E-05
(PID.TID 0000.0001)      cg2d_iters(min,last) =      -1      95
(PID.TID 0000.0001)      cg2d_last_res =   9.76122971873311E-12
(PID.TID 0000.0001) // =======================================================
(PID.TID 0000.0001) // Begin MONITOR dynamic field statistics
(PID.TID 0000.0001) // =======================================================
(PID.TID 0000.0001) %MON time_tsnumber                =                    17
(PID.TID 0000.0001) %MON time_secondsf                =   1.7000000000000E+03
(PID.TID 0000.0001) %MON dynstat_eta_max              =   4.9679115779768E+00
(PID.TID 0000.0001) %MON dynstat_eta_min              =  -1.5060756523497E+01
(PID.TID 0000.0001) %MON dynstat_eta_mean             =  -3.0983549844981E+00
(PID.TID 0000.0001) %MON dynstat_eta_sd               =   5.1652969824741E+00
(PID.TID 0000.0001) %MON dynstat_eta_del2             =   2.0762542341609E-01
(PID.TID 0000.0001) %MON dynstat_uvel_max             =   4.8405698176290E-04
(PID.TID 0000.0001) %MON dynstat_uvel_min             =  -2.0317782277823E-04
(PID.TID 0000.0001) %MON dynstat_uvel_mean            =   2.1306340469164E-05
(PID.TID 0000.0001) %MON dynstat_uvel_sd              =   5.0506804402845E-05
(PID.TID 0000.0001) %MON dynstat_uvel_del2            =   3.2684324137638E-08
(PID.TID 0000.0001) %MON dynstat_vvel_max             =   2.1909774697821E-03
(PID.TID 0000.0001) %MON dynstat_vvel_min             =  -6.3649180450158E-04
(PID.TID 0000.0001) %MON dynstat_vvel_mean            =   7.0185451546869E-04
(PID.TID 0000.0001) %MON dynstat_vvel_sd              =   1.7333123405705E-04
(PID.TID 0000.0001) %MON dynstat_vvel_del2            =   3.4520654661252E-07
(PID.TID 0000.0001) %MON dynstat_wvel_max             =   3.9758646205058E-04
(PID.TID 0000.0001) %MON dynstat_wvel_min             =  -3.1840887063672E-04
(PID.TID 0000.0001) %MON dynstat_wvel_mean            =  -1.2573954941751E-06
(PID.TID 0000.0001) %MON dynstat_wvel_sd              =   3.5504155995889E-05
(PID.TID 0000.0001) %MON dynstat_wvel_del2            =   2.1684150293205E-07
(PID.TID 0000.0001) %MON dynstat_theta_max            =   1.2000000000000E+00
(PID.TID 0000.0001) %MON dynstat_theta_min            =  -1.0000000000000E+00
(PID.TID 0000.0001) %MON dynstat_theta_mean           =   5.6915688830290E-01
(PID.TID 0000.0001) %MON dynstat_theta_sd             =   8.6860933894512E-01
(PID.TID 0000.0001) %MON dynstat_theta_del2           =   6.8171437168956E-07
(PID.TID 0000.0001) %MON dynstat_salt_max             =   3.4700000000000E+01
(PID.TID 0000.0001) %MON dynstat_salt_min             =   3.4000000000000E+01
(PID.TID 0000.0001) %MON dynstat_salt_mean            =   3.4499276657230E+01
(PID.TID 0000.0001) %MON dynstat_salt_sd              =   2.7637560387553E-01
(PID.TID 0000.0001) %MON dynstat_salt_del2            =   2.1793085833652E-07
(PID.TID 0000.0001) %MON advcfl_uvel_max              =   4.8405698176290E-05
(PID.TID 0000.0001) %MON advcfl_vvel_max              =   2.1909774697821E-04
(PID.TID 0000.0001) %MON advcfl_wvel_max              =   1.9879323102529E-03
(PID.TID 0000.0001) %MON advcfl_W_hf_max              =   1.9879323102529E-03
(PID.TID 0000.0001) %MON pe_b_mean                    =  -1.0193604209770E+00
(PID.TID 0000.0001) %MON ke_max                       =   1.4252738637320E-06
(PID.TID 0000.0001) %MON ke_mean                      =   2.6033482135493E-07
(PID.TID 0000.0001) %MON ke_vol                       =   4.2725210005281E+12
(PID.TID 0000.0001) // =======================================================
(PID.TID 0000.0001) // End MONITOR dynamic field statistics
(PID.TID 0000.0001) // =======================================================
(PID.TID 0000.0001) // =======================================================
(PID.TID 0000.0001) // Begin OBCS MONITOR field statistics
(PID.TID 0000.0001) // =======================================================
(PID.TID 0000.0001) %MON obc_N_vVel_max               =   7.9431199034043E-04
(PID.TID 0000.0001) %MON obc_N_vVel_min               =   7.9431199034043E-04
(PID.TID 0000.0001) %MON obc_N_vVel_mean              =   7.9431199034043E-04
(PID.TID 0000.0001) %MON obc_N_vVel_sd                =  -5.7174723939665E-21
(PID.TID 0000.0001) %MON obc_N_vVel_Int               =   5.2424591362468E+04
(PID.TID 0000.0001) // =======================================================
(PID.TID 0000.0001) // End OBCS MONITOR field statistics
(PID.TID 0000.0001) // =======================================================
 cg2d: Sum(rhs),rhsMax =   4.84973711696313E+00  3.45058415444144E+02
(PID.TID 0000.0001)      cg2d_init_res =   1.58307509064194E-05
(PID.TID 0000.0001)      cg2d_iters(min,last) =      -1      94
(PID.TID 0000.0001)      cg2d_last_res =   8.94677527414120E-12
(PID.TID 0000.0001) // =======================================================
(PID.TID 0000.0001) // Begin MONITOR dynamic field statistics
(PID.TID 0000.0001) // =======================================================
(PID.TID 0000.0001) %MON time_tsnumber                =                    18
(PID.TID 0000.0001) %MON time_secondsf                =   1.8000000000000E+03
(PID.TID 0000.0001) %MON dynstat_eta_max              =   4.9675385048013E+00
(PID.TID 0000.0001) %MON dynstat_eta_min              =  -1.5061392769840E+01
(PID.TID 0000.0001) %MON dynstat_eta_mean             =  -3.0989677868518E+00
(PID.TID 0000.0001) %MON dynstat_eta_sd               =   5.1652833851357E+00
(PID.TID 0000.0001) %MON dynstat_eta_del2             =   2.0762542702281E-01
(PID.TID 0000.0001) %MON dynstat_uvel_max             =   4.2944770079332E-04
(PID.TID 0000.0001) %MON dynstat_uvel_min             =  -1.9993581980371E-04
(PID.TID 0000.0001) %MON dynstat_uvel_mean            =   1.9914562302788E-05
(PID.TID 0000.0001) %MON dynstat_uvel_sd              =   4.7891777721869E-05
(PID.TID 0000.0001) %MON dynstat_uvel_del2            =   3.2666120554357E-08
(PID.TID 0000.0001) %MON dynstat_vvel_max             =   1.8853194074300E-03
(PID.TID 0000.0001) %MON dynstat_vvel_min             =  -9.4384073468441E-04
(PID.TID 0000.0001) %MON dynstat_vvel_mean            =   4.2898744205733E-04
(PID.TID 0000.0001) %MON dynstat_vvel_sd              =   1.4412268992073E-04
(PID.TID 0000.0001) %MON dynstat_vvel_del2            =   3.8909602935292E-07
(PID.TID 0000.0001) %MON dynstat_wvel_max             =   4.1638583635679E-04
(PID.TID 0000.0001) %MON dynstat_wvel_min             =  -4.5625086962892E-04
(PID.TID 0000.0001) %MON dynstat_wvel_mean            =  -1.5427347853619E-06
(PID.TID 0000.0001) %MON dynstat_wvel_sd              =   4.2896312065250E-05
(PID.TID 0000.0001) %MON dynstat_wvel_del2            =   2.6152866626658E-07
(PID.TID 0000.0001) %MON dynstat_theta_max            =   1.2000000000000E+00
(PID.TID 0000.0001) %MON dynstat_theta_min            =  -1.0000000000000E+00
(PID.TID 0000.0001) %MON dynstat_theta_mean           =   5.6915685920487E-01
(PID.TID 0000.0001) %MON dynstat_theta_sd             =   8.6860916951241E-01
(PID.TID 0000.0001) %MON dynstat_theta_del2           =   6.0103155781784E-07
(PID.TID 0000.0001) %MON dynstat_salt_max             =   3.4700000000000E+01
(PID.TID 0000.0001) %MON dynstat_salt_min             =   3.4000000000000E+01
(PID.TID 0000.0001) %MON dynstat_salt_mean            =   3.4499276626886E+01
(PID.TID 0000.0001) %MON dynstat_salt_sd              =   2.7637554426973E-01
(PID.TID 0000.0001) %MON dynstat_salt_del2            =   1.9239729116214E-07
(PID.TID 0000.0001) %MON advcfl_uvel_max              =   4.2944770079332E-05
(PID.TID 0000.0001) %MON advcfl_vvel_max              =   1.8853194074300E-04
(PID.TID 0000.0001) %MON advcfl_wvel_max              =   2.2812543481446E-03
(PID.TID 0000.0001) %MON advcfl_W_hf_max              =   2.2812543481446E-03
(PID.TID 0000.0001) %MON pe_b_mean                    =  -1.0194543525342E+00
(PID.TID 0000.0001) %MON ke_max                       =   9.8070061604291E-07
(PID.TID 0000.0001) %MON ke_mean                      =   1.0252709650756E-07
(PID.TID 0000.0001) %MON ke_vol                       =   4.2725157713921E+12
(PID.TID 0000.0001) // =======================================================
(PID.TID 0000.0001) // End MONITOR dynamic field statistics
(PID.TID 0000.0001) // =======================================================
(PID.TID 0000.0001) // =======================================================
(PID.TID 0000.0001) // Begin OBCS MONITOR field statistics
(PID.TID 0000.0001) // =======================================================
(PID.TID 0000.0001) %MON obc_N_vVel_max               =   5.5349840119914E-04
(PID.TID 0000.0001) %MON obc_N_vVel_min               =   5.5349840119914E-04
(PID.TID 0000.0001) %MON obc_N_vVel_mean              =   5.5349840119914E-04
(PID.TID 0000.0001) %MON obc_N_vVel_sd                =  -5.9821701899835E-21
(PID.TID 0000.0001) %MON obc_N_vVel_Int               =   3.6530894479144E+04
(PID.TID 0000.0001) // =======================================================
(PID.TID 0000.0001) // End OBCS MONITOR field statistics
(PID.TID 0000.0001) // =======================================================
 cg2d: Sum(rhs),rhsMax =   4.85029325053856E+00  3.45058149326814E+02
(PID.TID 0000.0001)      cg2d_init_res =   1.43339303798396E-05
(PID.TID 0000.0001)      cg2d_iters(min,last) =      -1      92
(PID.TID 0000.0001)      cg2d_last_res =   8.39351805678189E-12
(PID.TID 0000.0001) // =======================================================
(PID.TID 0000.0001) // Begin MONITOR dynamic field statistics
(PID.TID 0000.0001) // =======================================================
(PID.TID 0000.0001) %MON time_tsnumber                =                    19
(PID.TID 0000.0001) %MON time_secondsf                =   1.9000000000000E+03
(PID.TID 0000.0001) %MON dynstat_eta_max              =   4.9674507600826E+00
(PID.TID 0000.0001) %MON dynstat_eta_min              =  -1.5061393612173E+01
(PID.TID 0000.0001) %MON dynstat_eta_mean             =  -3.0993207643022E+00
(PID.TID 0000.0001) %MON dynstat_eta_sd               =   5.1651809866766E+00
(PID.TID 0000.0001) %MON dynstat_eta_del2             =   2.0762543046553E-01
(PID.TID 0000.0001) %MON dynstat_uvel_max             =   4.5519961587837E-04
(PID.TID 0000.0001) %MON dynstat_uvel_min             =  -1.9716561148586E-04
(PID.TID 0000.0001) %MON dynstat_uvel_mean            =   1.7683221824831E-05
(PID.TID 0000.0001) %MON dynstat_uvel_sd              =   4.8923887937947E-05
(PID.TID 0000.0001) %MON dynstat_uvel_del2            =   3.2414249397450E-08
(PID.TID 0000.0001) %MON dynstat_vvel_max             =   1.5909357153685E-03
(PID.TID 0000.0001) %MON dynstat_vvel_min             =  -1.2200456450490E-03
(PID.TID 0000.0001) %MON dynstat_vvel_mean            =   1.6535966376720E-04
(PID.TID 0000.0001) %MON dynstat_vvel_sd              =   1.4001807815144E-04
(PID.TID 0000.0001) %MON dynstat_vvel_del2            =   4.2935835520524E-07
(PID.TID 0000.0001) %MON dynstat_wvel_max             =   4.2609902433102E-04
(PID.TID 0000.0001) %MON dynstat_wvel_min             =  -5.8347422839284E-04
(PID.TID 0000.0001) %MON dynstat_wvel_mean            =  -1.7938523499166E-06
(PID.TID 0000.0001) %MON dynstat_wvel_sd              =   5.0154918541608E-05
(PID.TID 0000.0001) %MON dynstat_wvel_del2            =   2.9979894900489E-07
(PID.TID 0000.0001) %MON dynstat_theta_max            =   1.2000000000000E+00
(PID.TID 0000.0001) %MON dynstat_theta_min            =  -1.0000000000000E+00
(PID.TID 0000.0001) %MON dynstat_theta_mean           =   5.6915671014601E-01
(PID.TID 0000.0001) %MON dynstat_theta_sd             =   8.6860903990613E-01
(PID.TID 0000.0001) %MON dynstat_theta_del2           =   5.2095913437746E-07
(PID.TID 0000.0001) %MON dynstat_salt_max             =   3.4700000000000E+01
(PID.TID 0000.0001) %MON dynstat_salt_min             =   3.4000000000000E+01
(PID.TID 0000.0001) %MON dynstat_salt_mean            =   3.4499276558437E+01
(PID.TID 0000.0001) %MON dynstat_salt_sd              =   2.7637549723710E-01
(PID.TID 0000.0001) %MON dynstat_salt_del2            =   1.6706914762395E-07
(PID.TID 0000.0001) %MON advcfl_uvel_max              =   4.5519961587837E-05
(PID.TID 0000.0001) %MON advcfl_vvel_max              =   1.5909357153685E-04
(PID.TID 0000.0001) %MON advcfl_wvel_max              =   2.9173711419642E-03
(PID.TID 0000.0001) %MON advcfl_W_hf_max              =   2.9173711419642E-03
(PID.TID 0000.0001) %MON pe_b_mean                    =  -1.0194825858365E+00
(PID.TID 0000.0001) %MON ke_max                       =   6.4928693651920E-07
(PID.TID 0000.0001) %MON ke_mean                      =   2.4404093523993E-08
(PID.TID 0000.0001) %MON ke_vol                       =   4.2725121313461E+12
(PID.TID 0000.0001) // =======================================================
(PID.TID 0000.0001) // End MONITOR dynamic field statistics
(PID.TID 0000.0001) // =======================================================
(PID.TID 0000.0001) // =======================================================
(PID.TID 0000.0001) // Begin OBCS MONITOR field statistics
(PID.TID 0000.0001) // =======================================================
(PID.TID 0000.0001) %MON obc_N_vVel_max               =   3.1965012678702E-04
(PID.TID 0000.0001) %MON obc_N_vVel_min               =   3.1965012678701E-04
(PID.TID 0000.0001) %MON obc_N_vVel_mean              =   3.1965012678702E-04
(PID.TID 0000.0001) %MON obc_N_vVel_sd                =  -3.1101991031994E-21
(PID.TID 0000.0001) %MON obc_N_vVel_Int               =   2.1096908367943E+04
(PID.TID 0000.0001) // =======================================================
(PID.TID 0000.0001) // End OBCS MONITOR field statistics
(PID.TID 0000.0001) // =======================================================
 cg2d: Sum(rhs),rhsMax =   4.85046356631902E+00  3.45057974476883E+02
(PID.TID 0000.0001)      cg2d_init_res =   1.56720286087827E-05
(PID.TID 0000.0001)      cg2d_iters(min,last) =      -1      94
(PID.TID 0000.0001)      cg2d_last_res =   9.21738055048228E-12
(PID.TID 0000.0001) // =======================================================
(PID.TID 0000.0001) // Begin MONITOR dynamic field statistics
(PID.TID 0000.0001) // =======================================================
(PID.TID 0000.0001) %MON time_tsnumber                =                    20
(PID.TID 0000.0001) %MON time_secondsf                =   2.0000000000000E+03
(PID.TID 0000.0001) %MON dynstat_eta_max              =   4.9675889942345E+00
(PID.TID 0000.0001) %MON dynstat_eta_min              =  -1.5060835639942E+01
(PID.TID 0000.0001) %MON dynstat_eta_mean             =  -3.0994280249407E+00
(PID.TID 0000.0001) %MON dynstat_eta_sd               =   5.1649982737807E+00
(PID.TID 0000.0001) %MON dynstat_eta_del2             =   2.0762543372731E-01
(PID.TID 0000.0001) %MON dynstat_uvel_max             =   4.7454715192929E-04
(PID.TID 0000.0001) %MON dynstat_uvel_min             =  -2.0427942273393E-04
(PID.TID 0000.0001) %MON dynstat_uvel_mean            =   1.4999547923944E-05
(PID.TID 0000.0001) %MON dynstat_uvel_sd              =   5.0391698935952E-05
(PID.TID 0000.0001) %MON dynstat_uvel_del2            =   3.2019813923458E-08
(PID.TID 0000.0001) %MON dynstat_vvel_max             =   1.3127735236047E-03
(PID.TID 0000.0001) %MON dynstat_vvel_min             =  -1.4588349030461E-03
(PID.TID 0000.0001) %MON dynstat_vvel_mean            =  -8.3346068844576E-05
(PID.TID 0000.0001) %MON dynstat_vvel_sd              =   1.5991214704725E-04
(PID.TID 0000.0001) %MON dynstat_vvel_del2            =   4.6290747608069E-07
(PID.TID 0000.0001) %MON dynstat_wvel_max             =   4.2574030787277E-04
(PID.TID 0000.0001) %MON dynstat_wvel_min             =  -6.9613776123460E-04
(PID.TID 0000.0001) %MON dynstat_wvel_mean            =  -2.0103990765323E-06
(PID.TID 0000.0001) %MON dynstat_wvel_sd              =   5.6663986301422E-05
(PID.TID 0000.0001) %MON dynstat_wvel_del2            =   3.3024568131502E-07
(PID.TID 0000.0001) %MON dynstat_theta_max            =   1.2000000000000E+00
(PID.TID 0000.0001) %MON dynstat_theta_min            =  -1.0000000000000E+00
(PID.TID 0000.0001) %MON dynstat_theta_mean           =   5.6915644797786E-01
(PID.TID 0000.0001) %MON dynstat_theta_sd             =   8.6860894865309E-01
(PID.TID 0000.0001) %MON dynstat_theta_del2           =   4.5839925061139E-07
(PID.TID 0000.0001) %MON dynstat_salt_max             =   3.4700000000000E+01
(PID.TID 0000.0001) %MON dynstat_salt_min             =   3.4000000000000E+01
(PID.TID 0000.0001) %MON dynstat_salt_mean            =   3.4499276454006E+01
(PID.TID 0000.0001) %MON dynstat_salt_sd              =   2.7637546239048E-01
(PID.TID 0000.0001) %MON dynstat_salt_del2            =   1.4728806944793E-07
(PID.TID 0000.0001) %MON advcfl_uvel_max              =   4.7454715192929E-05
(PID.TID 0000.0001) %MON advcfl_vvel_max              =   1.4588349030461E-04
(PID.TID 0000.0001) %MON advcfl_wvel_max              =   3.4806888061730E-03
(PID.TID 0000.0001) %MON advcfl_W_hf_max              =   3.4806888061730E-03
(PID.TID 0000.0001) %MON pe_b_mean                    =  -1.0194492641666E+00
(PID.TID 0000.0001) %MON ke_max                       =   6.1014999858024E-07
(PID.TID 0000.0001) %MON ke_mean                      =   1.7575099327197E-08
(PID.TID 0000.0001) %MON ke_vol                       =   4.2725100346600E+12
(PID.TID 0000.0001) // =======================================================
(PID.TID 0000.0001) // End MONITOR dynamic field statistics
(PID.TID 0000.0001) // =======================================================
(PID.TID 0000.0001) // =======================================================
(PID.TID 0000.0001) // Begin OBCS MONITOR field statistics
(PID.TID 0000.0001) // =======================================================
(PID.TID 0000.0001) %MON obc_N_vVel_max               =   9.8504284514836E-05
(PID.TID 0000.0001) %MON obc_N_vVel_min               =   9.8504284514832E-05
(PID.TID 0000.0001) %MON obc_N_vVel_mean              =   9.8504284514836E-05
(PID.TID 0000.0001) %MON obc_N_vVel_sd                =  -1.0670629901934E-21
(PID.TID 0000.0001) %MON obc_N_vVel_Int               =   6.5012827779792E+03
(PID.TID 0000.0001) // =======================================================
(PID.TID 0000.0001) // End OBCS MONITOR field statistics
(PID.TID 0000.0001) // =======================================================
 cg2d: Sum(rhs),rhsMax =   4.85027742291474E+00  3.45057871093082E+02
(PID.TID 0000.0001)      cg2d_init_res =   1.87763383041174E-05
(PID.TID 0000.0001)      cg2d_iters(min,last) =      -1      95
(PID.TID 0000.0001)      cg2d_last_res =   7.78204021558941E-12
(PID.TID 0000.0001) // =======================================================
(PID.TID 0000.0001) // Begin MONITOR dynamic field statistics
(PID.TID 0000.0001) // =======================================================
(PID.TID 0000.0001) %MON time_tsnumber                =                    21
(PID.TID 0000.0001) %MON time_secondsf                =   2.1000000000000E+03
(PID.TID 0000.0001) %MON dynstat_eta_max              =   4.9679045003622E+00
(PID.TID 0000.0001) %MON dynstat_eta_min              =  -1.5059794098105E+01
(PID.TID 0000.0001) %MON dynstat_eta_mean             =  -3.0993081514107E+00
(PID.TID 0000.0001) %MON dynstat_eta_sd               =   5.1647446389304E+00
(PID.TID 0000.0001) %MON dynstat_eta_del2             =   2.0762543680429E-01
(PID.TID 0000.0001) %MON dynstat_uvel_max             =   4.7074742705344E-04
(PID.TID 0000.0001) %MON dynstat_uvel_min             =  -2.1742603661146E-04
(PID.TID 0000.0001) %MON dynstat_uvel_mean            =   1.2192841347379E-05
(PID.TID 0000.0001) %MON dynstat_uvel_sd              =   5.0883728323275E-05
(PID.TID 0000.0001) %MON dynstat_uvel_del2            =   3.1570366298377E-08
(PID.TID 0000.0001) %MON dynstat_vvel_max             =   1.0537887216930E-03
(PID.TID 0000.0001) %MON dynstat_vvel_min             =  -1.6558139149176E-03
(PID.TID 0000.0001) %MON dynstat_vvel_mean            =  -3.1235669027699E-04
(PID.TID 0000.0001) %MON dynstat_vvel_sd              =   1.9256761168891E-04
(PID.TID 0000.0001) %MON dynstat_vvel_del2            =   4.8787598621840E-07
(PID.TID 0000.0001) %MON dynstat_wvel_max             =   4.1463816536655E-04
(PID.TID 0000.0001) %MON dynstat_wvel_min             =  -7.9078584492346E-04
(PID.TID 0000.0001) %MON dynstat_wvel_mean            =  -2.1881520566687E-06
(PID.TID 0000.0001) %MON dynstat_wvel_sd              =   6.2082419302985E-05
(PID.TID 0000.0001) %MON dynstat_wvel_del2            =   3.5201959659509E-07
(PID.TID 0000.0001) %MON dynstat_theta_max            =   1.2000000000000E+00
(PID.TID 0000.0001) %MON dynstat_theta_min            =  -1.0000000000000E+00
(PID.TID 0000.0001) %MON dynstat_theta_mean           =   5.6915608411653E-01
(PID.TID 0000.0001) %MON dynstat_theta_sd             =   8.6860889300045E-01
(PID.TID 0000.0001) %MON dynstat_theta_del2           =   4.3489071811443E-07
(PID.TID 0000.0001) %MON dynstat_salt_max             =   3.4700000000000E+01
(PID.TID 0000.0001) %MON dynstat_salt_min             =   3.4000000000000E+01
(PID.TID 0000.0001) %MON dynstat_salt_mean            =   3.4499276317219E+01
(PID.TID 0000.0001) %MON dynstat_salt_sd              =   2.7637543888289E-01
(PID.TID 0000.0001) %MON dynstat_salt_del2            =   1.3981123314321E-07
(PID.TID 0000.0001) %MON advcfl_uvel_max              =   4.7074742705344E-05
(PID.TID 0000.0001) %MON advcfl_vvel_max              =   1.6558139149176E-04
(PID.TID 0000.0001) %MON advcfl_wvel_max              =   3.9539292246173E-03
(PID.TID 0000.0001) %MON advcfl_W_hf_max              =   3.9539292246173E-03
(PID.TID 0000.0001) %MON pe_b_mean                    =  -1.0193596680230E+00
(PID.TID 0000.0001) %MON ke_max                       =   8.4664278537523E-07
(PID.TID 0000.0001) %MON ke_mean                      =   6.8617032881702E-08
(PID.TID 0000.0001) %MON ke_vol                       =   4.2725093975319E+12
(PID.TID 0000.0001) // =======================================================
(PID.TID 0000.0001) // End MONITOR dynamic field statistics
(PID.TID 0000.0001) // =======================================================
(PID.TID 0000.0001) // =======================================================
(PID.TID 0000.0001) // Begin OBCS MONITOR field statistics
(PID.TID 0000.0001) // =======================================================
(PID.TID 0000.0001) %MON obc_N_vVel_max               =  -1.0591647560784E-04
(PID.TID 0000.0001) %MON obc_N_vVel_min               =  -1.0591647560784E-04
(PID.TID 0000.0001) %MON obc_N_vVel_mean              =  -1.0591647560784E-04
(PID.TID 0000.0001) %MON obc_N_vVel_sd                =  -8.6357655950536E-22
(PID.TID 0000.0001) %MON obc_N_vVel_Int               =  -6.9904873901175E+03
(PID.TID 0000.0001) // =======================================================
(PID.TID 0000.0001) // End OBCS MONITOR field statistics
(PID.TID 0000.0001) // =======================================================
 cg2d: Sum(rhs),rhsMax =   4.84976879263952E+00  3.45057824720791E+02
(PID.TID 0000.0001)      cg2d_init_res =   2.24955589258201E-05
(PID.TID 0000.0001)      cg2d_iters(min,last) =      -1      95
(PID.TID 0000.0001)      cg2d_last_res =   8.23110717938143E-12
(PID.TID 0000.0001) // =======================================================
(PID.TID 0000.0001) // Begin MONITOR dynamic field statistics
(PID.TID 0000.0001) // =======================================================
(PID.TID 0000.0001) %MON time_tsnumber                =                    22
(PID.TID 0000.0001) %MON time_secondsf                =   2.2000000000000E+03
(PID.TID 0000.0001) %MON dynstat_eta_max              =   4.9683624714259E+00
(PID.TID 0000.0001) %MON dynstat_eta_min              =  -1.5058335641237E+01
(PID.TID 0000.0001) %MON dynstat_eta_mean             =  -3.0989827221981E+00
(PID.TID 0000.0001) %MON dynstat_eta_sd               =   5.1644303889822E+00
(PID.TID 0000.0001) %MON dynstat_eta_del2             =   2.0762543969585E-01
(PID.TID 0000.0001) %MON dynstat_uvel_max             =   4.5178289039383E-04
(PID.TID 0000.0001) %MON dynstat_uvel_min             =  -2.2949619500423E-04
(PID.TID 0000.0001) %MON dynstat_uvel_mean            =   9.5019327362593E-06
(PID.TID 0000.0001) %MON dynstat_uvel_sd              =   5.0575743090787E-05
(PID.TID 0000.0001) %MON dynstat_uvel_del2            =   3.1145140797434E-08
(PID.TID 0000.0001) %MON dynstat_vvel_max             =   8.1586011351931E-04
(PID.TID 0000.0001) %MON dynstat_vvel_min             =  -1.8080266162267E-03
(PID.TID 0000.0001) %MON dynstat_vvel_mean            =  -5.1768449136510E-04
(PID.TID 0000.0001) %MON dynstat_vvel_sd              =   2.2797122159341E-04
(PID.TID 0000.0001) %MON dynstat_vvel_del2            =   5.0329716732375E-07
(PID.TID 0000.0001) %MON dynstat_wvel_max             =   3.9243926211827E-04
(PID.TID 0000.0001) %MON dynstat_wvel_min             =  -8.6701576907010E-04
(PID.TID 0000.0001) %MON dynstat_wvel_mean            =  -2.3202359611168E-06
(PID.TID 0000.0001) %MON dynstat_wvel_sd              =   6.6224335619798E-05
(PID.TID 0000.0001) %MON dynstat_wvel_del2            =   3.6470055326363E-07
(PID.TID 0000.0001) %MON dynstat_theta_max            =   1.2000000000000E+00
(PID.TID 0000.0001) %MON dynstat_theta_min            =  -1.0000000000000E+00
(PID.TID 0000.0001) %MON dynstat_theta_mean           =   5.6915563230864E-01
(PID.TID 0000.0001) %MON dynstat_theta_sd             =   8.6860886925848E-01
(PID.TID 0000.0001) %MON dynstat_theta_del2           =   4.6430765870340E-07
(PID.TID 0000.0001) %MON dynstat_salt_max             =   3.4700000000000E+01
(PID.TID 0000.0001) %MON dynstat_salt_min             =   3.4000000000000E+01
(PID.TID 0000.0001) %MON dynstat_salt_mean            =   3.4499276152447E+01
(PID.TID 0000.0001) %MON dynstat_salt_sd              =   2.7637542554692E-01
(PID.TID 0000.0001) %MON dynstat_salt_del2            =   1.4899837670574E-07
(PID.TID 0000.0001) %MON advcfl_uvel_max              =   4.5178289039383E-05
(PID.TID 0000.0001) %MON advcfl_vvel_max              =   1.8080266162267E-04
(PID.TID 0000.0001) %MON advcfl_wvel_max              =   4.3350788453505E-03
(PID.TID 0000.0001) %MON advcfl_W_hf_max              =   4.3350788453505E-03
(PID.TID 0000.0001) %MON pe_b_mean                    =  -1.0192199613668E+00
(PID.TID 0000.0001) %MON ke_max                       =   1.0827669884321E-06
(PID.TID 0000.0001) %MON ke_mean                      =   1.6094099715816E-07
(PID.TID 0000.0001) %MON ke_vol                       =   4.2725101095806E+12
(PID.TID 0000.0001) // =======================================================
(PID.TID 0000.0001) // End MONITOR dynamic field statistics
(PID.TID 0000.0001) // =======================================================
(PID.TID 0000.0001) // =======================================================
(PID.TID 0000.0001) // Begin OBCS MONITOR field statistics
(PID.TID 0000.0001) // =======================================================
(PID.TID 0000.0001) %MON obc_N_vVel_max               =  -2.9091659907241E-04
(PID.TID 0000.0001) %MON obc_N_vVel_min               =  -2.9091659907242E-04
(PID.TID 0000.0001) %MON obc_N_vVel_mean              =  -2.9091659907241E-04
(PID.TID 0000.0001) %MON obc_N_vVel_sd                =  -1.9852334701273E-22
(PID.TID 0000.0001) %MON obc_N_vVel_Int               =  -1.9200495538779E+04
(PID.TID 0000.0001) // =======================================================
(PID.TID 0000.0001) // End OBCS MONITOR field statistics
(PID.TID 0000.0001) // =======================================================
 cg2d: Sum(rhs),rhsMax =   4.84897469772126E+00  3.45057826495907E+02
(PID.TID 0000.0001)      cg2d_init_res =   2.61157459039809E-05
(PID.TID 0000.0001)      cg2d_iters(min,last) =      -1      95
(PID.TID 0000.0001)      cg2d_last_res =   9.31895722710962E-12
(PID.TID 0000.0001) // =======================================================
(PID.TID 0000.0001) // Begin MONITOR dynamic field statistics
(PID.TID 0000.0001) // =======================================================
(PID.TID 0000.0001) %MON time_tsnumber                =                    23
(PID.TID 0000.0001) %MON time_secondsf                =   2.3000000000000E+03
(PID.TID 0000.0001) %MON dynstat_eta_max              =   4.9689415177337E+00
(PID.TID 0000.0001) %MON dynstat_eta_min              =  -1.5056519373980E+01
(PID.TID 0000.0001) %MON dynstat_eta_mean             =  -3.0984753146840E+00
(PID.TID 0000.0001) %MON dynstat_eta_sd               =   5.1640666702965E+00
(PID.TID 0000.0001) %MON dynstat_eta_del2             =   2.0762544239816E-01
(PID.TID 0000.0001) %MON dynstat_uvel_max             =   4.3070429737391E-04
(PID.TID 0000.0001) %MON dynstat_uvel_min             =  -2.4048279497535E-04
(PID.TID 0000.0001) %MON dynstat_uvel_mean            =   7.0671866403016E-06
(PID.TID 0000.0001) %MON dynstat_uvel_sd              =   5.0109685486089E-05
(PID.TID 0000.0001) %MON dynstat_uvel_del2            =   3.0811420327881E-08
(PID.TID 0000.0001) %MON dynstat_vvel_max             =   6.0662316742650E-04
(PID.TID 0000.0001) %MON dynstat_vvel_min             =  -1.9244203595581E-03
(PID.TID 0000.0001) %MON dynstat_vvel_mean            =  -6.9607501290099E-04
(PID.TID 0000.0001) %MON dynstat_vvel_sd              =   2.6020728527908E-04
(PID.TID 0000.0001) %MON dynstat_vvel_del2            =   5.0889826687845E-07
(PID.TID 0000.0001) %MON dynstat_wvel_max             =   3.5911467517862E-04
(PID.TID 0000.0001) %MON dynstat_wvel_min             =  -9.2156559731998E-04
(PID.TID 0000.0001) %MON dynstat_wvel_mean            =  -2.3986341640388E-06
(PID.TID 0000.0001) %MON dynstat_wvel_sd              =   6.9001087371256E-05
(PID.TID 0000.0001) %MON dynstat_wvel_del2            =   3.6822405140387E-07
(PID.TID 0000.0001) %MON dynstat_theta_max            =   1.2000000000000E+00
(PID.TID 0000.0001) %MON dynstat_theta_min            =  -1.0000000000000E+00
(PID.TID 0000.0001) %MON dynstat_theta_mean           =   5.6915510720009E-01
(PID.TID 0000.0001) %MON dynstat_theta_sd             =   8.6860887301120E-01
(PID.TID 0000.0001) %MON dynstat_theta_del2           =   5.3980875601952E-07
(PID.TID 0000.0001) %MON dynstat_salt_max             =   3.4700000000000E+01
(PID.TID 0000.0001) %MON dynstat_salt_min             =   3.4000000000000E+01
(PID.TID 0000.0001) %MON dynstat_salt_mean            =   3.4499275964353E+01
(PID.TID 0000.0001) %MON dynstat_salt_sd              =   2.7637542097440E-01
(PID.TID 0000.0001) %MON dynstat_salt_del2            =   1.7276617589034E-07
(PID.TID 0000.0001) %MON advcfl_uvel_max              =   4.3070429737391E-05
(PID.TID 0000.0001) %MON advcfl_vvel_max              =   1.9244203595581E-04
(PID.TID 0000.0001) %MON advcfl_wvel_max              =   4.6078279865999E-03
(PID.TID 0000.0001) %MON advcfl_W_hf_max              =   4.6078279865999E-03
(PID.TID 0000.0001) %MON pe_b_mean                    =  -1.0190370009597E+00
(PID.TID 0000.0001) %MON ke_max                       =   1.3032755997580E-06
(PID.TID 0000.0001) %MON ke_mean                      =   2.7654648041703E-07
(PID.TID 0000.0001) %MON ke_vol                       =   4.2725120426301E+12
(PID.TID 0000.0001) // =======================================================
(PID.TID 0000.0001) // End MONITOR dynamic field statistics
(PID.TID 0000.0001) // =======================================================
(PID.TID 0000.0001) // =======================================================
(PID.TID 0000.0001) // Begin OBCS MONITOR field statistics
(PID.TID 0000.0001) // =======================================================
(PID.TID 0000.0001) %MON obc_N_vVel_max               =  -4.5469707980580E-04
(PID.TID 0000.0001) %MON obc_N_vVel_min               =  -4.5469707980581E-04
(PID.TID 0000.0001) %MON obc_N_vVel_mean              =  -4.5469707980581E-04
(PID.TID 0000.0001) %MON obc_N_vVel_sd                =  -1.5961277099823E-20
(PID.TID 0000.0001) %MON obc_N_vVel_Int               =  -3.0010007267183E+04
(PID.TID 0000.0001) // =======================================================
(PID.TID 0000.0001) // End OBCS MONITOR field statistics
(PID.TID 0000.0001) // =======================================================
 cg2d: Sum(rhs),rhsMax =   4.84793431932739E+00  3.45057871982597E+02
(PID.TID 0000.0001)      cg2d_init_res =   2.92303688738925E-05
(PID.TID 0000.0001)      cg2d_iters(min,last) =      -1      96
(PID.TID 0000.0001)      cg2d_last_res =   8.18281160652706E-12
(PID.TID 0000.0001) // =======================================================
(PID.TID 0000.0001) // Begin MONITOR dynamic field statistics
(PID.TID 0000.0001) // =======================================================
(PID.TID 0000.0001) %MON time_tsnumber                =                    24
(PID.TID 0000.0001) %MON time_secondsf                =   2.4000000000000E+03
(PID.TID 0000.0001) %MON dynstat_eta_max              =   4.9696302927972E+00
(PID.TID 0000.0001) %MON dynstat_eta_min              =  -1.5054402464723E+01
(PID.TID 0000.0001) %MON dynstat_eta_mean             =  -3.0978109254417E+00
(PID.TID 0000.0001) %MON dynstat_eta_sd               =   5.1636652996908E+00
(PID.TID 0000.0001) %MON dynstat_eta_del2             =   2.0762544490654E-01
(PID.TID 0000.0001) %MON dynstat_uvel_max             =   4.1767305240925E-04
(PID.TID 0000.0001) %MON dynstat_uvel_min             =  -2.5042693182442E-04
(PID.TID 0000.0001) %MON dynstat_uvel_mean            =   4.9425791304235E-06
(PID.TID 0000.0001) %MON dynstat_uvel_sd              =   4.9927122024209E-05
(PID.TID 0000.0001) %MON dynstat_uvel_del2            =   3.0621405902851E-08
(PID.TID 0000.0001) %MON dynstat_vvel_max             =   4.5624557653925E-04
(PID.TID 0000.0001) %MON dynstat_vvel_min             =  -2.0137299908928E-03
(PID.TID 0000.0001) %MON dynstat_vvel_mean            =  -8.4499957368072E-04
(PID.TID 0000.0001) %MON dynstat_vvel_sd              =   2.8600858488740E-04
(PID.TID 0000.0001) %MON dynstat_vvel_del2            =   5.0498194650189E-07
(PID.TID 0000.0001) %MON dynstat_wvel_max             =   3.1496552670243E-04
(PID.TID 0000.0001) %MON dynstat_wvel_min             =  -9.5400216555278E-04
(PID.TID 0000.0001) %MON dynstat_wvel_mean            =  -2.4158816699177E-06
(PID.TID 0000.0001) %MON dynstat_wvel_sd              =   7.0392888394987E-05
(PID.TID 0000.0001) %MON dynstat_wvel_del2            =   3.6284365148240E-07
(PID.TID 0000.0001) %MON dynstat_theta_max            =   1.2000000000000E+00
(PID.TID 0000.0001) %MON dynstat_theta_min            =  -1.0000000000000E+00
(PID.TID 0000.0001) %MON dynstat_theta_mean           =   5.6915452331889E-01
(PID.TID 0000.0001) %MON dynstat_theta_sd             =   8.6860889932090E-01
(PID.TID 0000.0001) %MON dynstat_theta_del2           =   6.4267076653911E-07
(PID.TID 0000.0001) %MON dynstat_salt_max             =   3.4700000000000E+01
(PID.TID 0000.0001) %MON dynstat_salt_min             =   3.4000000000000E+01
(PID.TID 0000.0001) %MON dynstat_salt_mean            =   3.4499275757548E+01
(PID.TID 0000.0001) %MON dynstat_salt_sd              =   2.7637542359412E-01
(PID.TID 0000.0001) %MON dynstat_salt_del2            =   2.0526319884957E-07
(PID.TID 0000.0001) %MON advcfl_uvel_max              =   4.1767305240925E-05
(PID.TID 0000.0001) %MON advcfl_vvel_max              =   2.0137299908928E-04
(PID.TID 0000.0001) %MON advcfl_wvel_max              =   4.7700108277639E-03
(PID.TID 0000.0001) %MON advcfl_W_hf_max              =   4.7700108277639E-03
(PID.TID 0000.0001) %MON pe_b_mean                    =  -1.0188181892148E+00
(PID.TID 0000.0001) %MON ke_max                       =   1.4928097944933E-06
(PID.TID 0000.0001) %MON ke_mean                      =   3.9773951031473E-07
(PID.TID 0000.0001) %MON ke_vol                       =   4.2725150566308E+12
(PID.TID 0000.0001) // =======================================================
(PID.TID 0000.0001) // End MONITOR dynamic field statistics
(PID.TID 0000.0001) // =======================================================
(PID.TID 0000.0001) // =======================================================
(PID.TID 0000.0001) // Begin OBCS MONITOR field statistics
(PID.TID 0000.0001) // =======================================================
(PID.TID 0000.0001) %MON obc_N_vVel_max               =  -5.9597979452511E-04
(PID.TID 0000.0001) %MON obc_N_vVel_min               =  -5.9597979452512E-04
(PID.TID 0000.0001) %MON obc_N_vVel_mean              =  -5.9597979452512E-04
(PID.TID 0000.0001) %MON obc_N_vVel_sd                =   4.8263242793552E-11
(PID.TID 0000.0001) %MON obc_N_vVel_Int               =  -3.9334666438658E+04
(PID.TID 0000.0001) // =======================================================
(PID.TID 0000.0001) // End OBCS MONITOR field statistics
(PID.TID 0000.0001) // =======================================================
 cg2d: Sum(rhs),rhsMax =   4.84668847952030E+00  3.45057960925692E+02
(PID.TID 0000.0001)      cg2d_init_res =   3.16157204171783E-05
(PID.TID 0000.0001)      cg2d_iters(min,last) =      -1      96
(PID.TID 0000.0001)      cg2d_last_res =   8.93405809622848E-12
(PID.TID 0000.0001) // =======================================================
(PID.TID 0000.0001) // Begin MONITOR dynamic field statistics
(PID.TID 0000.0001) // =======================================================
(PID.TID 0000.0001) %MON time_tsnumber                =                    25
(PID.TID 0000.0001) %MON time_secondsf                =   2.5000000000000E+03
(PID.TID 0000.0001) %MON dynstat_eta_max              =   4.9704228557546E+00
(PID.TID 0000.0001) %MON dynstat_eta_min              =  -1.5052046483222E+01
(PID.TID 0000.0001) %MON dynstat_eta_mean             =  -3.0970156370098E+00
(PID.TID 0000.0001) %MON dynstat_eta_sd               =   5.1632385141746E+00
(PID.TID 0000.0001) %MON dynstat_eta_del2             =   2.0762544782077E-01
(PID.TID 0000.0001) %MON dynstat_uvel_max             =   4.1256649454180E-04
(PID.TID 0000.0001) %MON dynstat_uvel_min             =  -2.5938723349128E-04
(PID.TID 0000.0001) %MON dynstat_uvel_mean            =   3.1200536661696E-06
(PID.TID 0000.0001) %MON dynstat_uvel_sd              =   5.0136080069893E-05
(PID.TID 0000.0001) %MON dynstat_uvel_del2            =   3.0609117873291E-08
(PID.TID 0000.0001) %MON dynstat_vvel_max             =   3.1146945881795E-04
(PID.TID 0000.0001) %MON dynstat_vvel_min             =  -2.0556487669605E-03
(PID.TID 0000.0001) %MON dynstat_vvel_mean            =  -9.6266640454936E-04
(PID.TID 0000.0001) %MON dynstat_vvel_sd              =   3.0372502985482E-04
(PID.TID 0000.0001) %MON dynstat_vvel_del2            =   4.9237801142616E-07
(PID.TID 0000.0001) %MON dynstat_wvel_max             =   2.6062296275983E-04
(PID.TID 0000.0001) %MON dynstat_wvel_min             =  -9.6426882361811E-04
(PID.TID 0000.0001) %MON dynstat_wvel_mean            =  -2.3667213919938E-06
(PID.TID 0000.0001) %MON dynstat_wvel_sd              =   7.0436201577584E-05
(PID.TID 0000.0001) %MON dynstat_wvel_del2            =   3.4912780232194E-07
(PID.TID 0000.0001) %MON dynstat_theta_max            =   1.2000000000000E+00
(PID.TID 0000.0001) %MON dynstat_theta_min            =  -1.0000000000000E+00
(PID.TID 0000.0001) %MON dynstat_theta_mean           =   5.6915388985089E-01
(PID.TID 0000.0001) %MON dynstat_theta_sd             =   8.6860894445277E-01
(PID.TID 0000.0001) %MON dynstat_theta_del2           =   7.5624509741936E-07
(PID.TID 0000.0001) %MON dynstat_salt_max             =   3.4700000000000E+01
(PID.TID 0000.0001) %MON dynstat_salt_min             =   3.4000000000000E+01
(PID.TID 0000.0001) %MON dynstat_salt_mean            =   3.4499275534550E+01
(PID.TID 0000.0001) %MON dynstat_salt_sd              =   2.7637543235282E-01
(PID.TID 0000.0001) %MON dynstat_salt_del2            =   2.4122366042400E-07
(PID.TID 0000.0001) %MON advcfl_uvel_max              =   4.1256649454180E-05
(PID.TID 0000.0001) %MON advcfl_vvel_max              =   2.0556487669605E-04
(PID.TID 0000.0001) %MON advcfl_wvel_max              =   4.8213441180906E-03
(PID.TID 0000.0001) %MON advcfl_W_hf_max              =   4.8213441180906E-03
(PID.TID 0000.0001) %MON pe_b_mean                    =  -1.0185713323527E+00
(PID.TID 0000.0001) %MON ke_max                       =   1.6610887697268E-06
(PID.TID 0000.0001) %MON ke_mean                      =   5.0871220869015E-07
(PID.TID 0000.0001) %MON ke_vol                       =   4.2725190031029E+12
(PID.TID 0000.0001) // =======================================================
(PID.TID 0000.0001) // End MONITOR dynamic field statistics
(PID.TID 0000.0001) // =======================================================
(PID.TID 0000.0001) // =======================================================
(PID.TID 0000.0001) // Begin OBCS MONITOR field statistics
(PID.TID 0000.0001) // =======================================================
(PID.TID 0000.0001) %MON obc_N_vVel_max               =  -7.1375118788079E-04
(PID.TID 0000.0001) %MON obc_N_vVel_min               =  -7.1375118788080E-04
(PID.TID 0000.0001) %MON obc_N_vVel_mean              =  -7.1375118788079E-04
(PID.TID 0000.0001) %MON obc_N_vVel_sd                =   1.1271865066977E-10
(PID.TID 0000.0001) %MON obc_N_vVel_Int               =  -4.7107578400132E+04
(PID.TID 0000.0001) // =======================================================
(PID.TID 0000.0001) // End OBCS MONITOR field statistics
(PID.TID 0000.0001) // =======================================================
 cg2d: Sum(rhs),rhsMax =   4.84527946949460E+00  3.45058092031984E+02
(PID.TID 0000.0001)      cg2d_init_res =   3.31731490867981E-05
(PID.TID 0000.0001)      cg2d_iters(min,last) =      -1      96
(PID.TID 0000.0001)      cg2d_last_res =   9.41913264684074E-12
(PID.TID 0000.0001) // =======================================================
(PID.TID 0000.0001) // Begin MONITOR dynamic field statistics
(PID.TID 0000.0001) // =======================================================
(PID.TID 0000.0001) %MON time_tsnumber                =                    26
(PID.TID 0000.0001) %MON time_secondsf                =   2.6000000000000E+03
(PID.TID 0000.0001) %MON dynstat_eta_max              =   4.9713131600325E+00
(PID.TID 0000.0001) %MON dynstat_eta_min              =  -1.5049521511093E+01
(PID.TID 0000.0001) %MON dynstat_eta_mean             =  -3.0961164613066E+00
(PID.TID 0000.0001) %MON dynstat_eta_sd               =   5.1627986526653E+00
(PID.TID 0000.0001) %MON dynstat_eta_del2             =   2.0762545097538E-01
(PID.TID 0000.0001) %MON dynstat_uvel_max             =   4.1459871254235E-04
(PID.TID 0000.0001) %MON dynstat_uvel_min             =  -2.6741701022281E-04
(PID.TID 0000.0001) %MON dynstat_uvel_mean            =   1.5575595703852E-06
(PID.TID 0000.0001) %MON dynstat_uvel_sd              =   5.0602061568891E-05
(PID.TID 0000.0001) %MON dynstat_uvel_del2            =   3.0787512418214E-08
(PID.TID 0000.0001) %MON dynstat_vvel_max             =   1.7390658299121E-04
(PID.TID 0000.0001) %MON dynstat_vvel_min             =  -2.0499871683081E-03
(PID.TID 0000.0001) %MON dynstat_vvel_mean            =  -1.0480338700284E-03
(PID.TID 0000.0001) %MON dynstat_vvel_sd              =   3.1283279272847E-04
(PID.TID 0000.0001) %MON dynstat_vvel_del2            =   4.7245295065120E-07
(PID.TID 0000.0001) %MON dynstat_wvel_max             =   2.7648333841940E-04
(PID.TID 0000.0001) %MON dynstat_wvel_min             =  -9.5268242489133E-04
(PID.TID 0000.0001) %MON dynstat_wvel_mean            =  -2.2494434022337E-06
(PID.TID 0000.0001) %MON dynstat_wvel_sd              =   6.9220509423575E-05
(PID.TID 0000.0001) %MON dynstat_wvel_del2            =   3.2799433294110E-07
(PID.TID 0000.0001) %MON dynstat_theta_max            =   1.2000000000000E+00
(PID.TID 0000.0001) %MON dynstat_theta_min            =  -1.0000000000000E+00
(PID.TID 0000.0001) %MON dynstat_theta_mean           =   5.6915321131308E-01
(PID.TID 0000.0001) %MON dynstat_theta_sd             =   8.6860900279303E-01
(PID.TID 0000.0001) %MON dynstat_theta_del2           =   8.6911039609198E-07
(PID.TID 0000.0001) %MON dynstat_salt_max             =   3.4700000000000E+01
(PID.TID 0000.0001) %MON dynstat_salt_min             =   3.4000000000000E+01
(PID.TID 0000.0001) %MON dynstat_salt_mean            =   3.4499275296074E+01
(PID.TID 0000.0001) %MON dynstat_salt_sd              =   2.7637544546750E-01
(PID.TID 0000.0001) %MON dynstat_salt_del2            =   2.7700753659343E-07
(PID.TID 0000.0001) %MON advcfl_uvel_max              =   4.1459871254235E-05
(PID.TID 0000.0001) %MON advcfl_vvel_max              =   2.0499871683081E-04
(PID.TID 0000.0001) %MON advcfl_wvel_max              =   4.7634121244566E-03
(PID.TID 0000.0001) %MON advcfl_W_hf_max              =   4.7634121244566E-03
(PID.TID 0000.0001) %MON pe_b_mean                    =  -1.0183044961399E+00
(PID.TID 0000.0001) %MON ke_max                       =   1.8730013132415E-06
(PID.TID 0000.0001) %MON ke_mean                      =   5.9680720936269E-07
(PID.TID 0000.0001) %MON ke_vol                       =   4.2725237271162E+12
(PID.TID 0000.0001) // =======================================================
(PID.TID 0000.0001) // End MONITOR dynamic field statistics
(PID.TID 0000.0001) // =======================================================
(PID.TID 0000.0001) // =======================================================
(PID.TID 0000.0001) // Begin OBCS MONITOR field statistics
(PID.TID 0000.0001) // =======================================================
(PID.TID 0000.0001) %MON obc_N_vVel_max               =  -8.0714616468653E-04
(PID.TID 0000.0001) %MON obc_N_vVel_min               =  -8.0714616468654E-04
(PID.TID 0000.0001) %MON obc_N_vVel_mean              =  -8.0714616468653E-04
(PID.TID 0000.0001) %MON obc_N_vVel_sd                =  -9.8467580118312E-21
(PID.TID 0000.0001) %MON obc_N_vVel_Int               =  -5.3271646869311E+04
(PID.TID 0000.0001) // =======================================================
(PID.TID 0000.0001) // End OBCS MONITOR field statistics
(PID.TID 0000.0001) // =======================================================
 cg2d: Sum(rhs),rhsMax =   4.84375095327026E+00  3.45058264956114E+02
(PID.TID 0000.0001)      cg2d_init_res =   3.38744964297912E-05
(PID.TID 0000.0001)      cg2d_iters(min,last) =      -1      96
(PID.TID 0000.0001)      cg2d_last_res =   9.64289988410864E-12
(PID.TID 0000.0001) // =======================================================
(PID.TID 0000.0001) // Begin MONITOR dynamic field statistics
(PID.TID 0000.0001) // =======================================================
(PID.TID 0000.0001) %MON time_tsnumber                =                    27
(PID.TID 0000.0001) %MON time_secondsf                =   2.7000000000000E+03
(PID.TID 0000.0001) %MON dynstat_eta_max              =   4.9722909394600E+00
(PID.TID 0000.0001) %MON dynstat_eta_min              =  -1.5046906510166E+01
(PID.TID 0000.0001) %MON dynstat_eta_mean             =  -3.0951412959536E+00
(PID.TID 0000.0001) %MON dynstat_eta_sd               =   5.1623579099272E+00
(PID.TID 0000.0001) %MON dynstat_eta_del2             =   2.0762545413588E-01
(PID.TID 0000.0001) %MON dynstat_uvel_max             =   4.1882296077933E-04
(PID.TID 0000.0001) %MON dynstat_uvel_min             =  -2.7455574249480E-04
(PID.TID 0000.0001) %MON dynstat_uvel_mean            =   2.0357806378723E-07
(PID.TID 0000.0001) %MON dynstat_uvel_sd              =   5.1026589511053E-05
(PID.TID 0000.0001) %MON dynstat_uvel_del2            =   3.1147360794530E-08
(PID.TID 0000.0001) %MON dynstat_vvel_max             =   4.5320175052132E-05
(PID.TID 0000.0001) %MON dynstat_vvel_min             =  -2.0698384979214E-03
(PID.TID 0000.0001) %MON dynstat_vvel_mean            =  -1.1008183951713E-03
(PID.TID 0000.0001) %MON dynstat_vvel_sd              =   3.1362492502100E-04
(PID.TID 0000.0001) %MON dynstat_vvel_del2            =   4.4716857115724E-07
(PID.TID 0000.0001) %MON dynstat_wvel_max             =   2.9542724899770E-04
(PID.TID 0000.0001) %MON dynstat_wvel_min             =  -9.1995133498388E-04
(PID.TID 0000.0001) %MON dynstat_wvel_mean            =  -2.0666791344873E-06
(PID.TID 0000.0001) %MON dynstat_wvel_sd              =   6.6891473210164E-05
(PID.TID 0000.0001) %MON dynstat_wvel_del2            =   3.0079647367944E-07
(PID.TID 0000.0001) %MON dynstat_theta_max            =   1.2000000000000E+00
(PID.TID 0000.0001) %MON dynstat_theta_min            =  -1.0000000000000E+00
(PID.TID 0000.0001) %MON dynstat_theta_mean           =   5.6915250290606E-01
(PID.TID 0000.0001) %MON dynstat_theta_sd             =   8.6860906734238E-01
(PID.TID 0000.0001) %MON dynstat_theta_del2           =   9.7361245286392E-07
(PID.TID 0000.0001) %MON dynstat_salt_max             =   3.4700000000000E+01
(PID.TID 0000.0001) %MON dynstat_salt_min             =   3.4000000000000E+01
(PID.TID 0000.0001) %MON dynstat_salt_mean            =   3.4499275047196E+01
(PID.TID 0000.0001) %MON dynstat_salt_sd              =   2.7637546061786E-01
(PID.TID 0000.0001) %MON dynstat_salt_del2            =   3.1016711257577E-07
(PID.TID 0000.0001) %MON advcfl_uvel_max              =   4.1882296077933E-05
(PID.TID 0000.0001) %MON advcfl_vvel_max              =   2.0698384979214E-04
(PID.TID 0000.0001) %MON advcfl_wvel_max              =   4.5997566749194E-03
(PID.TID 0000.0001) %MON advcfl_W_hf_max              =   4.5997566749194E-03
(PID.TID 0000.0001) %MON pe_b_mean                    =  -1.0180258765753E+00
(PID.TID 0000.0001) %MON ke_max                       =   1.9983223379702E-06
(PID.TID 0000.0001) %MON ke_mean                      =   6.5333950405367E-07
(PID.TID 0000.0001) %MON ke_vol                       =   4.2725290682198E+12
(PID.TID 0000.0001) // =======================================================
(PID.TID 0000.0001) // End MONITOR dynamic field statistics
(PID.TID 0000.0001) // =======================================================
(PID.TID 0000.0001) // =======================================================
(PID.TID 0000.0001) // Begin OBCS MONITOR field statistics
(PID.TID 0000.0001) // =======================================================
(PID.TID 0000.0001) %MON obc_N_vVel_max               =  -8.7545505349951E-04
(PID.TID 0000.0001) %MON obc_N_vVel_min               =  -8.7545505349953E-04
(PID.TID 0000.0001) %MON obc_N_vVel_mean              =  -8.7545505349953E-04
(PID.TID 0000.0001) %MON obc_N_vVel_sd                =  -5.3151317440207E-20
(PID.TID 0000.0001) %MON obc_N_vVel_Int               =  -5.7780033530969E+04
(PID.TID 0000.0001) // =======================================================
(PID.TID 0000.0001) // End OBCS MONITOR field statistics
(PID.TID 0000.0001) // =======================================================
 cg2d: Sum(rhs),rhsMax =   4.84214744141831E+00  3.45058478301479E+02
(PID.TID 0000.0001)      cg2d_init_res =   3.37467963105285E-05
(PID.TID 0000.0001)      cg2d_iters(min,last) =      -1      96
(PID.TID 0000.0001)      cg2d_last_res =   9.56691964015343E-12
(PID.TID 0000.0001) // =======================================================
(PID.TID 0000.0001) // Begin MONITOR dynamic field statistics
(PID.TID 0000.0001) // =======================================================
(PID.TID 0000.0001) %MON time_tsnumber                =                    28
(PID.TID 0000.0001) %MON time_secondsf                =   2.8000000000000E+03
(PID.TID 0000.0001) %MON dynstat_eta_max              =   4.9733394687517E+00
(PID.TID 0000.0001) %MON dynstat_eta_min              =  -1.5044285949138E+01
(PID.TID 0000.0001) %MON dynstat_eta_mean             =  -3.0941185700874E+00
(PID.TID 0000.0001) %MON dynstat_eta_sd               =   5.1619279968363E+00
(PID.TID 0000.0001) %MON dynstat_eta_del2             =   2.0762545719958E-01
(PID.TID 0000.0001) %MON dynstat_uvel_max             =   4.1853114837842E-04
(PID.TID 0000.0001) %MON dynstat_uvel_min             =  -2.8083851484872E-04
(PID.TID 0000.0001) %MON dynstat_uvel_mean            =  -9.8625252520709E-07
(PID.TID 0000.0001) %MON dynstat_uvel_sd              =   5.1020083798962E-05
(PID.TID 0000.0001) %MON dynstat_uvel_del2            =   3.1659036286950E-08
(PID.TID 0000.0001) %MON dynstat_vvel_max             =  -7.2532387347153E-05
(PID.TID 0000.0001) %MON dynstat_vvel_min             =  -2.0811286296274E-03
(PID.TID 0000.0001) %MON dynstat_vvel_mean            =  -1.1214939737584E-03
(PID.TID 0000.0001) %MON dynstat_vvel_sd              =   3.0694633326054E-04
(PID.TID 0000.0001) %MON dynstat_vvel_del2            =   4.1917143293809E-07
(PID.TID 0000.0001) %MON dynstat_wvel_max             =   3.1088752710533E-04
(PID.TID 0000.0001) %MON dynstat_wvel_min             =  -8.6719772923108E-04
(PID.TID 0000.0001) %MON dynstat_wvel_mean            =  -1.8255284292150E-06
(PID.TID 0000.0001) %MON dynstat_wvel_sd              =   6.3658832872527E-05
(PID.TID 0000.0001) %MON dynstat_wvel_del2            =   2.6949019025975E-07
(PID.TID 0000.0001) %MON dynstat_theta_max            =   1.2000000000000E+00
(PID.TID 0000.0001) %MON dynstat_theta_min            =  -1.0000000000000E+00
(PID.TID 0000.0001) %MON dynstat_theta_mean           =   5.6915178100892E-01
(PID.TID 0000.0001) %MON dynstat_theta_sd             =   8.6860913160029E-01
(PID.TID 0000.0001) %MON dynstat_theta_del2           =   1.0645447752198E-06
(PID.TID 0000.0001) %MON dynstat_salt_max             =   3.4700000000000E+01
(PID.TID 0000.0001) %MON dynstat_salt_min             =   3.4000000000000E+01
(PID.TID 0000.0001) %MON dynstat_salt_mean            =   3.4499274793542E+01
(PID.TID 0000.0001) %MON dynstat_salt_sd              =   2.7637547570457E-01
(PID.TID 0000.0001) %MON dynstat_salt_del2            =   3.3903600764345E-07
(PID.TID 0000.0001) %MON advcfl_uvel_max              =   4.1853114837842E-05
(PID.TID 0000.0001) %MON advcfl_vvel_max              =   2.0811286296274E-04
(PID.TID 0000.0001) %MON advcfl_wvel_max              =   4.3359886461554E-03
(PID.TID 0000.0001) %MON advcfl_W_hf_max              =   4.3359886461554E-03
(PID.TID 0000.0001) %MON pe_b_mean                    =  -1.0177435834315E+00
(PID.TID 0000.0001) %MON ke_max                       =   2.0285972344957E-06
(PID.TID 0000.0001) %MON ke_mean                      =   6.7394313271373E-07
(PID.TID 0000.0001) %MON ke_vol                       =   4.2725348607020E+12
(PID.TID 0000.0001) // =======================================================
(PID.TID 0000.0001) // End MONITOR dynamic field statistics
(PID.TID 0000.0001) // =======================================================
(PID.TID 0000.0001) // =======================================================
(PID.TID 0000.0001) // Begin OBCS MONITOR field statistics
(PID.TID 0000.0001) // =======================================================
(PID.TID 0000.0001) %MON obc_N_vVel_max               =  -9.1821552998383E-04
(PID.TID 0000.0001) %MON obc_N_vVel_min               =  -9.1821552998386E-04
(PID.TID 0000.0001) %MON obc_N_vVel_mean              =  -9.1821552998386E-04
(PID.TID 0000.0001) %MON obc_N_vVel_sd                =  -2.2658131339053E-20
(PID.TID 0000.0001) %MON obc_N_vVel_Int               =  -6.0602224978935E+04
(PID.TID 0000.0001) // =======================================================
(PID.TID 0000.0001) // End OBCS MONITOR field statistics
(PID.TID 0000.0001) // =======================================================
 cg2d: Sum(rhs),rhsMax =   4.84051361347867E+00  3.45058728988784E+02
(PID.TID 0000.0001)      cg2d_init_res =   3.28458604408723E-05
(PID.TID 0000.0001)      cg2d_iters(min,last) =      -1      96
(PID.TID 0000.0001)      cg2d_last_res =   9.02781171383313E-12
(PID.TID 0000.0001) // =======================================================
(PID.TID 0000.0001) // Begin MONITOR dynamic field statistics
(PID.TID 0000.0001) // =======================================================
(PID.TID 0000.0001) %MON time_tsnumber                =                    29
(PID.TID 0000.0001) %MON time_secondsf                =   2.9000000000000E+03
(PID.TID 0000.0001) %MON dynstat_eta_max              =   4.9744348861783E+00
(PID.TID 0000.0001) %MON dynstat_eta_min              =  -1.5041743878519E+01
(PID.TID 0000.0001) %MON dynstat_eta_mean             =  -3.0930768057775E+00
(PID.TID 0000.0001) %MON dynstat_eta_sd               =   5.1615198330371E+00
(PID.TID 0000.0001) %MON dynstat_eta_del2             =   2.0762546007644E-01
(PID.TID 0000.0001) %MON dynstat_uvel_max             =   4.0949713341742E-04
(PID.TID 0000.0001) %MON dynstat_uvel_min             =  -2.8630131919094E-04
(PID.TID 0000.0001) %MON dynstat_uvel_mean            =  -2.0415951095229E-06
(PID.TID 0000.0001) %MON dynstat_uvel_sd              =   5.0231809423459E-05
(PID.TID 0000.0001) %MON dynstat_uvel_del2            =   3.2277123241039E-08
(PID.TID 0000.0001) %MON dynstat_vvel_max             =  -6.2448532062995E-05
(PID.TID 0000.0001) %MON dynstat_vvel_min             =  -2.0448429563613E-03
(PID.TID 0000.0001) %MON dynstat_vvel_mean            =  -1.1112801680207E-03
(PID.TID 0000.0001) %MON dynstat_vvel_sd              =   2.9396057877935E-04
(PID.TID 0000.0001) %MON dynstat_vvel_del2            =   3.9185728405136E-07
(PID.TID 0000.0001) %MON dynstat_wvel_max             =   3.2203878842081E-04
(PID.TID 0000.0001) %MON dynstat_wvel_min             =  -7.9597521848413E-04
(PID.TID 0000.0001) %MON dynstat_wvel_mean            =  -1.5370181841369E-06
(PID.TID 0000.0001) %MON dynstat_wvel_sd              =   5.9807730676748E-05
(PID.TID 0000.0001) %MON dynstat_wvel_del2            =   2.3693281446752E-07
(PID.TID 0000.0001) %MON dynstat_theta_max            =   1.2000000000000E+00
(PID.TID 0000.0001) %MON dynstat_theta_min            =  -1.0000000000000E+00
(PID.TID 0000.0001) %MON dynstat_theta_mean           =   5.6915106131691E-01
(PID.TID 0000.0001) %MON dynstat_theta_sd             =   8.6860919013060E-01
(PID.TID 0000.0001) %MON dynstat_theta_del2           =   1.1381366557342E-06
(PID.TID 0000.0001) %MON dynstat_salt_max             =   3.4700000000000E+01
(PID.TID 0000.0001) %MON dynstat_salt_min             =   3.4000000000000E+01
(PID.TID 0000.0001) %MON dynstat_salt_mean            =   3.4499274540543E+01
(PID.TID 0000.0001) %MON dynstat_salt_sd              =   2.7637548898844E-01
(PID.TID 0000.0001) %MON dynstat_salt_del2            =   3.6240786259787E-07
(PID.TID 0000.0001) %MON advcfl_uvel_max              =   4.0949713341742E-05
(PID.TID 0000.0001) %MON advcfl_vvel_max              =   2.0448429563613E-04
(PID.TID 0000.0001) %MON advcfl_wvel_max              =   3.9798760924206E-03
(PID.TID 0000.0001) %MON advcfl_W_hf_max              =   3.9798760924206E-03
(PID.TID 0000.0001) %MON pe_b_mean                    =  -1.0174654233679E+00
(PID.TID 0000.0001) %MON ke_max                       =   1.9644018840577E-06
(PID.TID 0000.0001) %MON ke_mean                      =   6.5848013814036E-07
(PID.TID 0000.0001) %MON ke_vol                       =   4.2725409356937E+12
(PID.TID 0000.0001) // =======================================================
(PID.TID 0000.0001) // End MONITOR dynamic field statistics
(PID.TID 0000.0001) // =======================================================
(PID.TID 0000.0001) // =======================================================
(PID.TID 0000.0001) // Begin OBCS MONITOR field statistics
(PID.TID 0000.0001) // =======================================================
(PID.TID 0000.0001) %MON obc_N_vVel_max               =  -9.3534600194431E-04
(PID.TID 0000.0001) %MON obc_N_vVel_min               =  -9.3534600194433E-04
(PID.TID 0000.0001) %MON obc_N_vVel_mean              =  -9.3534600194433E-04
(PID.TID 0000.0001) %MON obc_N_vVel_sd                =  -3.1551977285223E-20
(PID.TID 0000.0001) %MON obc_N_vVel_Int               =  -6.1732836128326E+04
(PID.TID 0000.0001) // =======================================================
(PID.TID 0000.0001) // End OBCS MONITOR field statistics
(PID.TID 0000.0001) // =======================================================
 cg2d: Sum(rhs),rhsMax =   4.83889341693962E+00  3.45059011797389E+02
(PID.TID 0000.0001)      cg2d_init_res =   3.12436806018921E-05
(PID.TID 0000.0001)      cg2d_iters(min,last) =      -1      90
(PID.TID 0000.0001)      cg2d_last_res =   9.22344230580854E-12
(PID.TID 0000.0001) // =======================================================
(PID.TID 0000.0001) // Begin MONITOR dynamic field statistics
(PID.TID 0000.0001) // =======================================================
(PID.TID 0000.0001) %MON time_tsnumber                =                    30
(PID.TID 0000.0001) %MON time_secondsf                =   3.0000000000000E+03
(PID.TID 0000.0001) %MON dynstat_eta_max              =   4.9755471058294E+00
(PID.TID 0000.0001) %MON dynstat_eta_min              =  -1.5039357251033E+01
(PID.TID 0000.0001) %MON dynstat_eta_mean             =  -3.0920440382261E+00
(PID.TID 0000.0001) %MON dynstat_eta_sd               =   5.1611432632960E+00
(PID.TID 0000.0001) %MON dynstat_eta_del2             =   2.0762546269943E-01
(PID.TID 0000.0001) %MON dynstat_uvel_max             =   3.8989382990162E-04
(PID.TID 0000.0001) %MON dynstat_uvel_min             =  -2.9099067210758E-04
(PID.TID 0000.0001) %MON dynstat_uvel_mean            =  -2.9774936096447E-06
(PID.TID 0000.0001) %MON dynstat_uvel_sd              =   4.8495867648049E-05
(PID.TID 0000.0001) %MON dynstat_uvel_del2            =   3.2946743627129E-08
(PID.TID 0000.0001) %MON dynstat_vvel_max             =   1.3599209036629E-05
(PID.TID 0000.0001) %MON dynstat_vvel_min             =  -1.9917862474016E-03
(PID.TID 0000.0001) %MON dynstat_vvel_mean            =  -1.0721141712423E-03
(PID.TID 0000.0001) %MON dynstat_vvel_sd              =   2.7597423117231E-04
(PID.TID 0000.0001) %MON dynstat_vvel_del2            =   3.6926432573891E-07
(PID.TID 0000.0001) %MON dynstat_wvel_max             =   3.2810054862542E-04
(PID.TID 0000.0001) %MON dynstat_wvel_min             =  -7.2293328861480E-04
(PID.TID 0000.0001) %MON dynstat_wvel_mean            =  -1.2150127051747E-06
(PID.TID 0000.0001) %MON dynstat_wvel_sd              =   5.5710608387276E-05
(PID.TID 0000.0001) %MON dynstat_wvel_del2            =   2.0732794385725E-07
(PID.TID 0000.0001) %MON dynstat_theta_max            =   1.2000000000000E+00
(PID.TID 0000.0001) %MON dynstat_theta_min            =  -1.0000000000000E+00
(PID.TID 0000.0001) %MON dynstat_theta_mean           =   5.6915035813352E-01
(PID.TID 0000.0001) %MON dynstat_theta_sd             =   8.6860923799294E-01
(PID.TID 0000.0001) %MON dynstat_theta_del2           =   1.1918267261074E-06
(PID.TID 0000.0001) %MON dynstat_salt_max             =   3.4700000000000E+01
(PID.TID 0000.0001) %MON dynstat_salt_min             =   3.4000000000000E+01
(PID.TID 0000.0001) %MON dynstat_salt_mean            =   3.4499274293145E+01
(PID.TID 0000.0001) %MON dynstat_salt_sd              =   2.7637549888217E-01
(PID.TID 0000.0001) %MON dynstat_salt_del2            =   3.7946353932360E-07
(PID.TID 0000.0001) %MON advcfl_uvel_max              =   3.8989382990162E-05
(PID.TID 0000.0001) %MON advcfl_vvel_max              =   1.9917862474016E-04
(PID.TID 0000.0001) %MON advcfl_wvel_max              =   3.6146664430740E-03
(PID.TID 0000.0001) %MON advcfl_W_hf_max              =   3.6146664430740E-03
(PID.TID 0000.0001) %MON pe_b_mean                    =  -1.0171986848566E+00
(PID.TID 0000.0001) %MON ke_max                       =   1.8149778521117E-06
(PID.TID 0000.0001) %MON ke_mean                      =   6.1057774737301E-07
(PID.TID 0000.0001) %MON ke_vol                       =   4.2725471237737E+12
(PID.TID 0000.0001) // =======================================================
(PID.TID 0000.0001) // End MONITOR dynamic field statistics
(PID.TID 0000.0001) // =======================================================
(PID.TID 0000.0001) // =======================================================
(PID.TID 0000.0001) // Begin OBCS MONITOR field statistics
(PID.TID 0000.0001) // =======================================================
(PID.TID 0000.0001) %MON obc_N_vVel_max               =  -9.2728094432094E-04
(PID.TID 0000.0001) %MON obc_N_vVel_min               =  -9.2728094432095E-04
(PID.TID 0000.0001) %MON obc_N_vVel_mean              =  -9.2728094432095E-04
(PID.TID 0000.0001) %MON obc_N_vVel_sd                =  -5.5692416281970E-20
(PID.TID 0000.0001) %MON obc_N_vVel_Int               =  -6.1200542325183E+04
(PID.TID 0000.0001) // =======================================================
(PID.TID 0000.0001) // End OBCS MONITOR field statistics
(PID.TID 0000.0001) // =======================================================
 cg2d: Sum(rhs),rhsMax =   4.83732897966503E+00  3.45059319238210E+02
(PID.TID 0000.0001)      cg2d_init_res =   2.90264153691829E-05
(PID.TID 0000.0001)      cg2d_iters(min,last) =      -1      96
(PID.TID 0000.0001)      cg2d_last_res =   8.05842309643702E-12
(PID.TID 0000.0001) // =======================================================
(PID.TID 0000.0001) // Begin MONITOR dynamic field statistics
(PID.TID 0000.0001) // =======================================================
(PID.TID 0000.0001) %MON time_tsnumber                =                    31
(PID.TID 0000.0001) %MON time_secondsf                =   3.1000000000000E+03
(PID.TID 0000.0001) %MON dynstat_eta_max              =   4.9766419089011E+00
(PID.TID 0000.0001) %MON dynstat_eta_min              =  -1.5037190256700E+01
(PID.TID 0000.0001) %MON dynstat_eta_mean             =  -3.0910471197305E+00
(PID.TID 0000.0001) %MON dynstat_eta_sd               =   5.1608068008257E+00
(PID.TID 0000.0001) %MON dynstat_eta_del2             =   2.0762546500770E-01
(PID.TID 0000.0001) %MON dynstat_uvel_max             =   3.6043723149604E-04
(PID.TID 0000.0001) %MON dynstat_uvel_min             =  -2.9497004197232E-04
(PID.TID 0000.0001) %MON dynstat_uvel_mean            =  -3.7990958100229E-06
(PID.TID 0000.0001) %MON dynstat_uvel_sd              =   4.5906423946398E-05
(PID.TID 0000.0001) %MON dynstat_uvel_del2            =   3.3610277831795E-08
(PID.TID 0000.0001) %MON dynstat_vvel_max             =   1.0510234988693E-04
(PID.TID 0000.0001) %MON dynstat_vvel_min             =  -1.9915070523269E-03
(PID.TID 0000.0001) %MON dynstat_vvel_mean            =  -1.0066018848961E-03
(PID.TID 0000.0001) %MON dynstat_vvel_sd              =   2.5434233952096E-04
(PID.TID 0000.0001) %MON dynstat_vvel_del2            =   3.5553305269540E-07
(PID.TID 0000.0001) %MON dynstat_wvel_max             =   3.2836941210924E-04
(PID.TID 0000.0001) %MON dynstat_wvel_min             =  -6.3648943576932E-04
(PID.TID 0000.0001) %MON dynstat_wvel_mean            =  -8.7478281690407E-07
(PID.TID 0000.0001) %MON dynstat_wvel_sd              =   5.1831002663972E-05
(PID.TID 0000.0001) %MON dynstat_wvel_del2            =   1.8646875617919E-07
(PID.TID 0000.0001) %MON dynstat_theta_max            =   1.2000000000000E+00
(PID.TID 0000.0001) %MON dynstat_theta_min            =  -1.0000000000000E+00
(PID.TID 0000.0001) %MON dynstat_theta_mean           =   5.6914968391199E-01
(PID.TID 0000.0001) %MON dynstat_theta_sd             =   8.6860927063639E-01
(PID.TID 0000.0001) %MON dynstat_theta_del2           =   1.2241280737735E-06
(PID.TID 0000.0001) %MON dynstat_salt_max             =   3.4700000000000E+01
(PID.TID 0000.0001) %MON dynstat_salt_min             =   3.4000000000000E+01
(PID.TID 0000.0001) %MON dynstat_salt_mean            =   3.4499274055625E+01
(PID.TID 0000.0001) %MON dynstat_salt_sd              =   2.7637550389852E-01
(PID.TID 0000.0001) %MON dynstat_salt_del2            =   3.8972751335732E-07
(PID.TID 0000.0001) %MON advcfl_uvel_max              =   3.6043723149604E-05
(PID.TID 0000.0001) %MON advcfl_vvel_max              =   1.9915070523269E-04
(PID.TID 0000.0001) %MON advcfl_wvel_max              =   3.1824471788466E-03
(PID.TID 0000.0001) %MON advcfl_W_hf_max              =   3.1824471788466E-03
(PID.TID 0000.0001) %MON pe_b_mean                    =  -1.0169499399800E+00
(PID.TID 0000.0001) %MON ke_max                       =   1.5970753399539E-06
(PID.TID 0000.0001) %MON ke_mean                      =   5.3686721002864E-07
(PID.TID 0000.0001) %MON ke_vol                       =   4.2725532584129E+12
(PID.TID 0000.0001) // =======================================================
(PID.TID 0000.0001) // End MONITOR dynamic field statistics
(PID.TID 0000.0001) // =======================================================
(PID.TID 0000.0001) // =======================================================
(PID.TID 0000.0001) // Begin OBCS MONITOR field statistics
(PID.TID 0000.0001) // =======================================================
(PID.TID 0000.0001) %MON obc_N_vVel_max               =  -8.9507733913020E-04
(PID.TID 0000.0001) %MON obc_N_vVel_min               =  -8.9507733913022E-04
(PID.TID 0000.0001) %MON obc_N_vVel_mean              =  -8.9507733913020E-04
(PID.TID 0000.0001) %MON obc_N_vVel_sd                =   2.4131621396776E-10
(PID.TID 0000.0001) %MON obc_N_vVel_Int               =  -5.9075104382593E+04
(PID.TID 0000.0001) // =======================================================
(PID.TID 0000.0001) // End OBCS MONITOR field statistics
(PID.TID 0000.0001) // =======================================================
 cg2d: Sum(rhs),rhsMax =   4.83585941935292E+00  3.45059641796166E+02
(PID.TID 0000.0001)      cg2d_init_res =   2.62966182504344E-05
(PID.TID 0000.0001)      cg2d_iters(min,last) =      -1      95
(PID.TID 0000.0001)      cg2d_last_res =   9.63155731492810E-12
(PID.TID 0000.0001) // =======================================================
(PID.TID 0000.0001) // Begin MONITOR dynamic field statistics
(PID.TID 0000.0001) // =======================================================
(PID.TID 0000.0001) %MON time_tsnumber                =                    32
(PID.TID 0000.0001) %MON time_secondsf                =   3.2000000000000E+03
(PID.TID 0000.0001) %MON dynstat_eta_max              =   4.9776837065044E+00
(PID.TID 0000.0001) %MON dynstat_eta_min              =  -1.5035290890228E+01
(PID.TID 0000.0001) %MON dynstat_eta_mean             =  -3.0901109611454E+00
(PID.TID 0000.0001) %MON dynstat_eta_sd               =   5.1605174097221E+00
(PID.TID 0000.0001) %MON dynstat_eta_del2             =   2.0762546696687E-01
(PID.TID 0000.0001) %MON dynstat_uvel_max             =   3.2377926908289E-04
(PID.TID 0000.0001) %MON dynstat_uvel_min             =  -2.9832210542047E-04
(PID.TID 0000.0001) %MON dynstat_uvel_mean            =  -4.5076150686630E-06
(PID.TID 0000.0001) %MON dynstat_uvel_sd              =   4.2785585218684E-05
(PID.TID 0000.0001) %MON dynstat_uvel_del2            =   3.4213587298280E-08
(PID.TID 0000.0001) %MON dynstat_vvel_max             =   2.0831124171985E-04
(PID.TID 0000.0001) %MON dynstat_vvel_min             =  -1.9586662864764E-03
(PID.TID 0000.0001) %MON dynstat_vvel_mean            =  -9.1794399160662E-04
(PID.TID 0000.0001) %MON dynstat_vvel_sd              =   2.3046163669570E-04
(PID.TID 0000.0001) %MON dynstat_vvel_del2            =   3.5376770455877E-07
(PID.TID 0000.0001) %MON dynstat_wvel_max             =   3.2225070933022E-04
(PID.TID 0000.0001) %MON dynstat_wvel_min             =  -5.3727556915754E-04
(PID.TID 0000.0001) %MON dynstat_wvel_mean            =  -5.3148988121789E-07
(PID.TID 0000.0001) %MON dynstat_wvel_sd              =   4.8698324448624E-05
(PID.TID 0000.0001) %MON dynstat_wvel_del2            =   1.8039358275316E-07
(PID.TID 0000.0001) %MON dynstat_theta_max            =   1.2000000000000E+00
(PID.TID 0000.0001) %MON dynstat_theta_min            =  -1.0000000000000E+00
(PID.TID 0000.0001) %MON dynstat_theta_mean           =   5.6914904875628E-01
(PID.TID 0000.0001) %MON dynstat_theta_sd             =   8.6860928370434E-01
(PID.TID 0000.0001) %MON dynstat_theta_del2           =   1.2345982107524E-06
(PID.TID 0000.0001) %MON dynstat_salt_max             =   3.4700000000000E+01
(PID.TID 0000.0001) %MON dynstat_salt_min             =   3.4000000000000E+01
(PID.TID 0000.0001) %MON dynstat_salt_mean            =   3.4499273831382E+01
(PID.TID 0000.0001) %MON dynstat_salt_sd              =   2.7637550257565E-01
(PID.TID 0000.0001) %MON dynstat_salt_del2            =   3.9305796797323E-07
(PID.TID 0000.0001) %MON advcfl_uvel_max              =   3.2377926908289E-05
(PID.TID 0000.0001) %MON advcfl_vvel_max              =   1.9586662864764E-04
(PID.TID 0000.0001) %MON advcfl_wvel_max              =   2.6863778457877E-03
(PID.TID 0000.0001) %MON advcfl_W_hf_max              =   2.6863778457877E-03
(PID.TID 0000.0001) %MON pe_b_mean                    =  -1.0167248774598E+00
(PID.TID 0000.0001) %MON ke_max                       =   1.3329808206934E-06
(PID.TID 0000.0001) %MON ke_mean                      =   4.4600662706873E-07
(PID.TID 0000.0001) %MON ke_vol                       =   4.2725591801088E+12
(PID.TID 0000.0001) // =======================================================
(PID.TID 0000.0001) // End MONITOR dynamic field statistics
(PID.TID 0000.0001) // =======================================================
(PID.TID 0000.0001) // =======================================================
(PID.TID 0000.0001) // Begin OBCS MONITOR field statistics
(PID.TID 0000.0001) // =======================================================
(PID.TID 0000.0001) %MON obc_N_vVel_max               =  -8.4047079579870E-04
(PID.TID 0000.0001) %MON obc_N_vVel_min               =  -8.4047079579872E-04
(PID.TID 0000.0001) %MON obc_N_vVel_mean              =  -8.4047079579870E-04
(PID.TID 0000.0001) %MON obc_N_vVel_sd                =   2.2637467461906E-10
(PID.TID 0000.0001) %MON obc_N_vVel_Int               =  -5.5471072522714E+04
(PID.TID 0000.0001) // =======================================================
(PID.TID 0000.0001) // End OBCS MONITOR field statistics
(PID.TID 0000.0001) // =======================================================
 cg2d: Sum(rhs),rhsMax =   4.83451964663222E+00  3.45059968521240E+02
(PID.TID 0000.0001)      cg2d_init_res =   2.31801569690972E-05
(PID.TID 0000.0001)      cg2d_iters(min,last) =      -1      95
(PID.TID 0000.0001)      cg2d_last_res =   8.33285374857764E-12
(PID.TID 0000.0001) // =======================================================
(PID.TID 0000.0001) // Begin MONITOR dynamic field statistics
(PID.TID 0000.0001) // =======================================================
(PID.TID 0000.0001) %MON time_tsnumber                =                    33
(PID.TID 0000.0001) %MON time_secondsf                =   3.3000000000000E+03
(PID.TID 0000.0001) %MON dynstat_eta_max              =   4.9786384541698E+00
(PID.TID 0000.0001) %MON dynstat_eta_min              =  -1.5033690212894E+01
(PID.TID 0000.0001) %MON dynstat_eta_mean             =  -3.0892577723745E+00
(PID.TID 0000.0001) %MON dynstat_eta_sd               =   5.1602803316675E+00
(PID.TID 0000.0001) %MON dynstat_eta_del2             =   2.0762546837808E-01
(PID.TID 0000.0001) %MON dynstat_uvel_max             =   2.8408292715421E-04
(PID.TID 0000.0001) %MON dynstat_uvel_min             =  -3.0114399361736E-04
(PID.TID 0000.0001) %MON dynstat_uvel_mean            =  -5.1050028160448E-06
(PID.TID 0000.0001) %MON dynstat_uvel_sd              =   3.9569968100298E-05
(PID.TID 0000.0001) %MON dynstat_uvel_del2            =   3.4711011870429E-08
(PID.TID 0000.0001) %MON dynstat_vvel_max             =   3.1898998488657E-04
(PID.TID 0000.0001) %MON dynstat_vvel_min             =  -1.8946791876297E-03
(PID.TID 0000.0001) %MON dynstat_vvel_mean            =  -8.0983584939215E-04
(PID.TID 0000.0001) %MON dynstat_vvel_sd              =   2.0583978535344E-04
(PID.TID 0000.0001) %MON dynstat_vvel_del2            =   3.6476165997349E-07
(PID.TID 0000.0001) %MON dynstat_wvel_max             =   3.0928739360647E-04
(PID.TID 0000.0001) %MON dynstat_wvel_min             =  -4.7333367292925E-04
(PID.TID 0000.0001) %MON dynstat_wvel_mean            =  -1.9884129506144E-07
(PID.TID 0000.0001) %MON dynstat_wvel_sd              =   4.6821438340373E-05
(PID.TID 0000.0001) %MON dynstat_wvel_del2            =   1.9147218533506E-07
(PID.TID 0000.0001) %MON dynstat_theta_max            =   1.2000000000000E+00
(PID.TID 0000.0001) %MON dynstat_theta_min            =  -1.0000000000000E+00
(PID.TID 0000.0001) %MON dynstat_theta_mean           =   5.6914845898807E-01
(PID.TID 0000.0001) %MON dynstat_theta_sd             =   8.6860927328664E-01
(PID.TID 0000.0001) %MON dynstat_theta_del2           =   1.2238448971388E-06
(PID.TID 0000.0001) %MON dynstat_salt_max             =   3.4700000000000E+01
(PID.TID 0000.0001) %MON dynstat_salt_min             =   3.4000000000000E+01
(PID.TID 0000.0001) %MON dynstat_salt_mean            =   3.4499273622365E+01
(PID.TID 0000.0001) %MON dynstat_salt_sd              =   2.7637549356760E-01
(PID.TID 0000.0001) %MON dynstat_salt_del2            =   3.8964835410691E-07
(PID.TID 0000.0001) %MON advcfl_uvel_max              =   3.0114399361736E-05
(PID.TID 0000.0001) %MON advcfl_vvel_max              =   1.8946791876297E-04
(PID.TID 0000.0001) %MON advcfl_wvel_max              =   2.3666683646463E-03
(PID.TID 0000.0001) %MON advcfl_W_hf_max              =   2.3666683646463E-03
(PID.TID 0000.0001) %MON pe_b_mean                    =  -1.0165281746593E+00
(PID.TID 0000.0001) %MON ke_max                       =   1.2445599914302E-06
(PID.TID 0000.0001) %MON ke_mean                      =   3.4758631409415E-07
(PID.TID 0000.0001) %MON ke_vol                       =   4.2725647408908E+12
(PID.TID 0000.0001) // =======================================================
(PID.TID 0000.0001) // End MONITOR dynamic field statistics
(PID.TID 0000.0001) // =======================================================
(PID.TID 0000.0001) // =======================================================
(PID.TID 0000.0001) // Begin OBCS MONITOR field statistics
(PID.TID 0000.0001) // =======================================================
(PID.TID 0000.0001) %MON obc_N_vVel_max               =  -7.6586976259902E-04
(PID.TID 0000.0001) %MON obc_N_vVel_min               =  -7.6586976259904E-04
(PID.TID 0000.0001) %MON obc_N_vVel_mean              =  -7.6586976259902E-04
(PID.TID 0000.0001) %MON obc_N_vVel_sd                =   1.9387389466973E-10
(PID.TID 0000.0001) %MON obc_N_vVel_Int               =  -5.0547404331535E+04
(PID.TID 0000.0001) // =======================================================
(PID.TID 0000.0001) // End OBCS MONITOR field statistics
(PID.TID 0000.0001) // =======================================================
 cg2d: Sum(rhs),rhsMax =   4.83333927569285E+00  3.45060287866378E+02
(PID.TID 0000.0001)      cg2d_init_res =   1.98331676514168E-05
(PID.TID 0000.0001)      cg2d_iters(min,last) =      -1      94
(PID.TID 0000.0001)      cg2d_last_res =   9.32214164131493E-12
(PID.TID 0000.0001) // =======================================================
(PID.TID 0000.0001) // Begin MONITOR dynamic field statistics
(PID.TID 0000.0001) // =======================================================
(PID.TID 0000.0001) %MON time_tsnumber                =                    34
(PID.TID 0000.0001) %MON time_secondsf                =   3.4000000000000E+03
(PID.TID 0000.0001) %MON dynstat_eta_max              =   4.9794765000369E+00
(PID.TID 0000.0001) %MON dynstat_eta_min              =  -1.5032403969932E+01
(PID.TID 0000.0001) %MON dynstat_eta_mean             =  -3.0885063737527E+00
(PID.TID 0000.0001) %MON dynstat_eta_sd               =   5.1600989901605E+00
(PID.TID 0000.0001) %MON dynstat_eta_del2             =   2.0762546930747E-01
(PID.TID 0000.0001) %MON dynstat_uvel_max             =   2.4466016410751E-04
(PID.TID 0000.0001) %MON dynstat_uvel_min             =  -3.0809202972283E-04
(PID.TID 0000.0001) %MON dynstat_uvel_mean            =  -5.5958880989927E-06
(PID.TID 0000.0001) %MON dynstat_uvel_sd              =   3.6672059321308E-05
(PID.TID 0000.0001) %MON dynstat_uvel_del2            =   3.5068995884715E-08
(PID.TID 0000.0001) %MON dynstat_vvel_max             =   4.3257990525959E-04
(PID.TID 0000.0001) %MON dynstat_vvel_min             =  -1.8016960069647E-03
(PID.TID 0000.0001) %MON dynstat_vvel_mean            =  -6.8634358278973E-04
(PID.TID 0000.0001) %MON dynstat_vvel_sd              =   1.8221087475017E-04
(PID.TID 0000.0001) %MON dynstat_vvel_del2            =   3.8664087385667E-07
(PID.TID 0000.0001) %MON dynstat_wvel_max             =   2.8918469465348E-04
(PID.TID 0000.0001) %MON dynstat_wvel_min             =  -5.3766776421719E-04
(PID.TID 0000.0001) %MON dynstat_wvel_mean            =   1.1188663417350E-07
(PID.TID 0000.0001) %MON dynstat_wvel_sd              =   4.6533264955001E-05
(PID.TID 0000.0001) %MON dynstat_wvel_del2            =   2.1623627668086E-07
(PID.TID 0000.0001) %MON dynstat_theta_max            =   1.2000000000000E+00
(PID.TID 0000.0001) %MON dynstat_theta_min            =  -1.0000000000000E+00
(PID.TID 0000.0001) %MON dynstat_theta_mean           =   5.6914791498604E-01
(PID.TID 0000.0001) %MON dynstat_theta_sd             =   8.6860923785252E-01
(PID.TID 0000.0001) %MON dynstat_theta_del2           =   1.1935867121976E-06
(PID.TID 0000.0001) %MON dynstat_salt_max             =   3.4700000000000E+01
(PID.TID 0000.0001) %MON dynstat_salt_min             =   3.4000000000000E+01
(PID.TID 0000.0001) %MON dynstat_salt_mean            =   3.4499273428215E+01
(PID.TID 0000.0001) %MON dynstat_salt_sd              =   2.7637547642316E-01
(PID.TID 0000.0001) %MON dynstat_salt_del2            =   3.8004699946909E-07
(PID.TID 0000.0001) %MON advcfl_uvel_max              =   3.0809202972283E-05
(PID.TID 0000.0001) %MON advcfl_vvel_max              =   1.8016960069647E-04
(PID.TID 0000.0001) %MON advcfl_wvel_max              =   2.6883388210859E-03
(PID.TID 0000.0001) %MON advcfl_W_hf_max              =   2.6883388210859E-03
(PID.TID 0000.0001) %MON pe_b_mean                    =  -1.0163634158507E+00
(PID.TID 0000.0001) %MON ke_max                       =   1.1343175926903E-06
(PID.TID 0000.0001) %MON ke_mean                      =   2.5103058779277E-07
(PID.TID 0000.0001) %MON ke_vol                       =   4.2725698088321E+12
(PID.TID 0000.0001) // =======================================================
(PID.TID 0000.0001) // End MONITOR dynamic field statistics
(PID.TID 0000.0001) // =======================================================
(PID.TID 0000.0001) // =======================================================
(PID.TID 0000.0001) // Begin OBCS MONITOR field statistics
(PID.TID 0000.0001) // =======================================================
(PID.TID 0000.0001) %MON obc_N_vVel_max               =  -6.7428665590657E-04
(PID.TID 0000.0001) %MON obc_N_vVel_min               =  -6.7428665590659E-04
(PID.TID 0000.0001) %MON obc_N_vVel_mean              =  -6.7428665590657E-04
(PID.TID 0000.0001) %MON obc_N_vVel_sd                =   9.5976472645073E-11
(PID.TID 0000.0001) %MON obc_N_vVel_Int               =  -4.4502919289834E+04
(PID.TID 0000.0001) // =======================================================
(PID.TID 0000.0001) // End OBCS MONITOR field statistics
(PID.TID 0000.0001) // =======================================================
 cg2d: Sum(rhs),rhsMax =   4.83234188646213E+00  3.45060587796993E+02
(PID.TID 0000.0001)      cg2d_init_res =   1.64474864525187E-05
(PID.TID 0000.0001)      cg2d_iters(min,last) =      -1      93
(PID.TID 0000.0001)      cg2d_last_res =   9.56581484852017E-12
(PID.TID 0000.0001) // =======================================================
(PID.TID 0000.0001) // Begin MONITOR dynamic field statistics
(PID.TID 0000.0001) // =======================================================
(PID.TID 0000.0001) %MON time_tsnumber                =                    35
(PID.TID 0000.0001) %MON time_secondsf                =   3.5000000000000E+03
(PID.TID 0000.0001) %MON dynstat_eta_max              =   4.9801744530877E+00
(PID.TID 0000.0001) %MON dynstat_eta_min              =  -1.5031435727866E+01
(PID.TID 0000.0001) %MON dynstat_eta_mean             =  -3.0878717255160E+00
(PID.TID 0000.0001) %MON dynstat_eta_sd               =   5.1599749943429E+00
(PID.TID 0000.0001) %MON dynstat_eta_del2             =   2.0762547017360E-01
(PID.TID 0000.0001) %MON dynstat_uvel_max             =   2.3713732053499E-04
(PID.TID 0000.0001) %MON dynstat_uvel_min             =  -3.1617142594722E-04
(PID.TID 0000.0001) %MON dynstat_uvel_mean            =  -5.9867623416873E-06
(PID.TID 0000.0001) %MON dynstat_uvel_sd              =   3.4373499744210E-05
(PID.TID 0000.0001) %MON dynstat_uvel_del2            =   3.5268173107520E-08
(PID.TID 0000.0001) %MON dynstat_vvel_max             =   5.4440011250509E-04
(PID.TID 0000.0001) %MON dynstat_vvel_min             =  -1.6824897636033E-03
(PID.TID 0000.0001) %MON dynstat_vvel_mean            =  -5.5176245528441E-04
(PID.TID 0000.0001) %MON dynstat_vvel_sd              =   1.6162934078802E-04
(PID.TID 0000.0001) %MON dynstat_vvel_del2            =   4.1578179509282E-07
(PID.TID 0000.0001) %MON dynstat_wvel_max             =   2.6182911558701E-04
(PID.TID 0000.0001) %MON dynstat_wvel_min             =  -5.9236940405806E-04
(PID.TID 0000.0001) %MON dynstat_wvel_mean            =   3.9235143021057E-07
(PID.TID 0000.0001) %MON dynstat_wvel_sd              =   4.7845839357567E-05
(PID.TID 0000.0001) %MON dynstat_wvel_del2            =   2.4852780390351E-07
(PID.TID 0000.0001) %MON dynstat_theta_max            =   1.2000000000000E+00
(PID.TID 0000.0001) %MON dynstat_theta_min            =  -1.0000000000000E+00
(PID.TID 0000.0001) %MON dynstat_theta_mean           =   5.6914741852975E-01
(PID.TID 0000.0001) %MON dynstat_theta_sd             =   8.6860917842895E-01
(PID.TID 0000.0001) %MON dynstat_theta_del2           =   1.1465970505708E-06
(PID.TID 0000.0001) %MON dynstat_salt_max             =   3.4700000000000E+01
(PID.TID 0000.0001) %MON dynstat_salt_min             =   3.4000000000000E+01
(PID.TID 0000.0001) %MON dynstat_salt_mean            =   3.4499273249221E+01
(PID.TID 0000.0001) %MON dynstat_salt_sd              =   2.7637545161892E-01
(PID.TID 0000.0001) %MON dynstat_salt_del2            =   3.6513886557028E-07
(PID.TID 0000.0001) %MON advcfl_uvel_max              =   3.1617142594722E-05
(PID.TID 0000.0001) %MON advcfl_vvel_max              =   1.6824897636033E-04
(PID.TID 0000.0001) %MON advcfl_wvel_max              =   2.9618470202903E-03
(PID.TID 0000.0001) %MON advcfl_W_hf_max              =   2.9618470202903E-03
(PID.TID 0000.0001) %MON pe_b_mean                    =  -1.0162330776010E+00
(PID.TID 0000.0001) %MON ke_max                       =   1.0022499968675E-06
(PID.TID 0000.0001) %MON ke_mean                      =   1.6461376138446E-07
(PID.TID 0000.0001) %MON ke_vol                       =   4.2725742721399E+12
(PID.TID 0000.0001) // =======================================================
(PID.TID 0000.0001) // End MONITOR dynamic field statistics
(PID.TID 0000.0001) // =======================================================
(PID.TID 0000.0001) // =======================================================
(PID.TID 0000.0001) // Begin OBCS MONITOR field statistics
(PID.TID 0000.0001) // =======================================================
(PID.TID 0000.0001) %MON obc_N_vVel_max               =  -5.6921386270719E-04
(PID.TID 0000.0001) %MON obc_N_vVel_min               =  -5.6921386270721E-04
(PID.TID 0000.0001) %MON obc_N_vVel_mean              =  -5.6921386270721E-04
(PID.TID 0000.0001) %MON obc_N_vVel_sd                =  -2.2922829135070E-20
(PID.TID 0000.0001) %MON obc_N_vVel_Int               =  -3.7568114938676E+04
(PID.TID 0000.0001) // =======================================================
(PID.TID 0000.0001) // End OBCS MONITOR field statistics
(PID.TID 0000.0001) // =======================================================
 cg2d: Sum(rhs),rhsMax =   4.83154442774025E+00  3.45060859709571E+02
(PID.TID 0000.0001)      cg2d_init_res =   1.32895584101867E-05
(PID.TID 0000.0001)      cg2d_iters(min,last) =      -1      92
(PID.TID 0000.0001)      cg2d_last_res =   9.57188601874088E-12
(PID.TID 0000.0001) // =======================================================
(PID.TID 0000.0001) // Begin MONITOR dynamic field statistics
(PID.TID 0000.0001) // =======================================================
(PID.TID 0000.0001) %MON time_tsnumber                =                    36
(PID.TID 0000.0001) %MON time_secondsf                =   3.6000000000000E+03
(PID.TID 0000.0001) %MON dynstat_eta_max              =   4.9807161426444E+00
(PID.TID 0000.0001) %MON dynstat_eta_min              =  -1.5030780480715E+01
(PID.TID 0000.0001) %MON dynstat_eta_mean             =  -3.0873645814093E+00
(PID.TID 0000.0001) %MON dynstat_eta_sd               =   5.1599081795175E+00
(PID.TID 0000.0001) %MON dynstat_eta_del2             =   2.0762547101190E-01
(PID.TID 0000.0001) %MON dynstat_uvel_max             =   2.4175545300054E-04
(PID.TID 0000.0001) %MON dynstat_uvel_min             =  -3.2377344337119E-04
(PID.TID 0000.0001) %MON dynstat_uvel_mean            =  -6.2833461632083E-06
(PID.TID 0000.0001) %MON dynstat_uvel_sd              =   3.2788221892146E-05
(PID.TID 0000.0001) %MON dynstat_uvel_del2            =   3.5303876251159E-08
(PID.TID 0000.0001) %MON dynstat_vvel_max             =   6.4986754570363E-04
(PID.TID 0000.0001) %MON dynstat_vvel_min             =  -1.5403158782094E-03
(PID.TID 0000.0001) %MON dynstat_vvel_mean            =  -4.1046641342233E-04
(PID.TID 0000.0001) %MON dynstat_vvel_sd              =   1.4637472010876E-04
(PID.TID 0000.0001) %MON dynstat_vvel_del2            =   4.4812913800757E-07
(PID.TID 0000.0001) %MON dynstat_wvel_max             =   2.2730203196863E-04
(PID.TID 0000.0001) %MON dynstat_wvel_min             =  -6.3580848881050E-04
(PID.TID 0000.0001) %MON dynstat_wvel_mean            =   6.3717153486424E-07
(PID.TID 0000.0001) %MON dynstat_wvel_sd              =   5.0444018002635E-05
(PID.TID 0000.0001) %MON dynstat_wvel_del2            =   2.8294135980767E-07
(PID.TID 0000.0001) %MON dynstat_theta_max            =   1.2000000000000E+00
(PID.TID 0000.0001) %MON dynstat_theta_min            =  -1.0000000000000E+00
(PID.TID 0000.0001) %MON dynstat_theta_mean           =   5.6914697321035E-01
(PID.TID 0000.0001) %MON dynstat_theta_sd             =   8.6860909480708E-01
(PID.TID 0000.0001) %MON dynstat_theta_del2           =   1.0868309497371E-06
(PID.TID 0000.0001) %MON dynstat_salt_max             =   3.4700000000000E+01
(PID.TID 0000.0001) %MON dynstat_salt_min             =   3.4000000000000E+01
(PID.TID 0000.0001) %MON dynstat_salt_mean            =   3.4499273086496E+01
(PID.TID 0000.0001) %MON dynstat_salt_sd              =   2.7637541911283E-01
(PID.TID 0000.0001) %MON dynstat_salt_del2            =   3.4618534536395E-07
(PID.TID 0000.0001) %MON advcfl_uvel_max              =   3.2377344337119E-05
(PID.TID 0000.0001) %MON advcfl_vvel_max              =   1.5403158782094E-04
(PID.TID 0000.0001) %MON advcfl_wvel_max              =   3.1790424440525E-03
(PID.TID 0000.0001) %MON advcfl_W_hf_max              =   3.1790424440525E-03
(PID.TID 0000.0001) %MON pe_b_mean                    =  -1.0161385360479E+00
(PID.TID 0000.0001) %MON ke_max                       =   8.5781745865605E-07
(PID.TID 0000.0001) %MON ke_mean                      =   9.4694395875403E-08
(PID.TID 0000.0001) %MON ke_vol                       =   4.2725780419504E+12
(PID.TID 0000.0001) // =======================================================
(PID.TID 0000.0001) // End MONITOR dynamic field statistics
(PID.TID 0000.0001) // =======================================================
(PID.TID 0000.0001) // =======================================================
(PID.TID 0000.0001) // Begin OBCS MONITOR field statistics
(PID.TID 0000.0001) // =======================================================
(PID.TID 0000.0001) %MON obc_N_vVel_max               =  -4.5446015587333E-04
(PID.TID 0000.0001) %MON obc_N_vVel_min               =  -4.5446015587335E-04
(PID.TID 0000.0001) %MON obc_N_vVel_mean              =  -4.5446015587333E-04
(PID.TID 0000.0001) %MON obc_N_vVel_sd                =   8.2958680657549E-11
(PID.TID 0000.0001) %MON obc_N_vVel_Int               =  -2.9994370287640E+04
(PID.TID 0000.0001) // =======================================================
(PID.TID 0000.0001) // End OBCS MONITOR field statistics
(PID.TID 0000.0001) // =======================================================
 cg2d: Sum(rhs),rhsMax =   4.52234915933809E+00  2.99858806265734E+02
(PID.TID 0000.0001)      cg2d_init_res =   3.89234300375816E-04
(PID.TID 0000.0001)      cg2d_iters(min,last) =      -1      99
(PID.TID 0000.0001)      cg2d_last_res =   9.07977344551500E-12
(PID.TID 0000.0001) // =======================================================
(PID.TID 0000.0001) // Begin MONITOR dynamic field statistics
(PID.TID 0000.0001) // =======================================================
(PID.TID 0000.0001) %MON time_tsnumber                =                    37
(PID.TID 0000.0001) %MON time_secondsf                =   3.7000000000000E+03
(PID.TID 0000.0001) %MON dynstat_eta_max              =   5.7963720434628E+00
(PID.TID 0000.0001) %MON dynstat_eta_min              =  -1.4193544838235E+01
(PID.TID 0000.0001) %MON dynstat_eta_mean             =  -2.5112337415481E+00
(PID.TID 0000.0001) %MON dynstat_eta_sd               =   4.9523301953631E+00
(PID.TID 0000.0001) %MON dynstat_eta_del2             =   2.0730693157372E-01
(PID.TID 0000.0001) %MON dynstat_uvel_max             =   2.4619449997654E-04
(PID.TID 0000.0001) %MON dynstat_uvel_min             =  -3.3301220240428E-04
(PID.TID 0000.0001) %MON dynstat_uvel_mean            =  -6.5044556702151E-06
(PID.TID 0000.0001) %MON dynstat_uvel_sd              =   3.1942782422411E-05
(PID.TID 0000.0001) %MON dynstat_uvel_del2            =   3.6916593309036E-08
(PID.TID 0000.0001) %MON dynstat_vvel_max             =   7.4522086821552E-04
(PID.TID 0000.0001) %MON dynstat_vvel_min             =  -1.3782493063571E-03
(PID.TID 0000.0001) %MON dynstat_vvel_mean            =  -2.6649246248623E-04
(PID.TID 0000.0001) %MON dynstat_vvel_sd              =   1.3837360188080E-04
(PID.TID 0000.0001) %MON dynstat_vvel_del2            =   4.8065325310941E-07
(PID.TID 0000.0001) %MON dynstat_wvel_max             =   2.3833921584198E-04
(PID.TID 0000.0001) %MON dynstat_wvel_min             =  -6.6658825535255E-04
(PID.TID 0000.0001) %MON dynstat_wvel_mean            =   8.4914156133323E-07
(PID.TID 0000.0001) %MON dynstat_wvel_sd              =   5.3854007881617E-05
(PID.TID 0000.0001) %MON dynstat_wvel_del2            =   3.1598767823786E-07
(PID.TID 0000.0001) %MON dynstat_theta_max            =   1.2000000000000E+00
(PID.TID 0000.0001) %MON dynstat_theta_min            =  -1.0000000000000E+00
(PID.TID 0000.0001) %MON dynstat_theta_mean           =   5.6914658259602E-01
(PID.TID 0000.0001) %MON dynstat_theta_sd             =   8.6860820780151E-01
(PID.TID 0000.0001) %MON dynstat_theta_del2           =   3.9125364807173E-06
(PID.TID 0000.0001) %MON dynstat_salt_max             =   3.4700000000000E+01
(PID.TID 0000.0001) %MON dynstat_salt_min             =   3.4000000000000E+01
(PID.TID 0000.0001) %MON dynstat_salt_mean            =   3.4499272941168E+01
(PID.TID 0000.0001) %MON dynstat_salt_sd              =   2.7637513039209E-01
(PID.TID 0000.0001) %MON dynstat_salt_del2            =   1.2455220717511E-06
(PID.TID 0000.0001) %MON advcfl_uvel_max              =   3.3301220240428E-05
(PID.TID 0000.0001) %MON advcfl_vvel_max              =   1.3782493063571E-04
(PID.TID 0000.0001) %MON advcfl_wvel_max              =   3.3329412767627E-03
(PID.TID 0000.0001) %MON advcfl_W_hf_max              =   3.3329412767627E-03
(PID.TID 0000.0001) %MON pe_b_mean                    =  -8.3238223343887E-01
(PID.TID 0000.0001) %MON ke_max                       =   7.0972172446300E-07
(PID.TID 0000.0001) %MON ke_mean                      =   4.5168847727921E-08
(PID.TID 0000.0001) %MON ke_vol                       =   4.2725810543864E+12
(PID.TID 0000.0001) // =======================================================
(PID.TID 0000.0001) // End MONITOR dynamic field statistics
(PID.TID 0000.0001) // =======================================================
(PID.TID 0000.0001) // =======================================================
(PID.TID 0000.0001) // Begin OBCS MONITOR field statistics
(PID.TID 0000.0001) // =======================================================
(PID.TID 0000.0001) %MON obc_N_vVel_max               =  -3.3396743453514E-04
(PID.TID 0000.0001) %MON obc_N_vVel_min               =  -3.3396743453514E-04
(PID.TID 0000.0001) %MON obc_N_vVel_mean              =  -3.3396743453514E-04
(PID.TID 0000.0001) %MON obc_N_vVel_sd                =   8.2478684262275E-11
(PID.TID 0000.0001) %MON obc_N_vVel_Int               =  -2.2041850679319E+04
(PID.TID 0000.0001) // =======================================================
(PID.TID 0000.0001) // End OBCS MONITOR field statistics
(PID.TID 0000.0001) // =======================================================
 cg2d: Sum(rhs),rhsMax =   4.52192016362616E+00  2.99859015291686E+02
(PID.TID 0000.0001)      cg2d_init_res =   1.36821457609496E-05
(PID.TID 0000.0001)      cg2d_iters(min,last) =      -1      92
(PID.TID 0000.0001)      cg2d_last_res =   8.64133957531120E-12
(PID.TID 0000.0001) // =======================================================
(PID.TID 0000.0001) // Begin MONITOR dynamic field statistics
(PID.TID 0000.0001) // =======================================================
(PID.TID 0000.0001) %MON time_tsnumber                =                    38
(PID.TID 0000.0001) %MON time_secondsf                =   3.8000000000000E+03
(PID.TID 0000.0001) %MON dynstat_eta_max              =   5.7966327580892E+00
(PID.TID 0000.0001) %MON dynstat_eta_min              =  -1.4193369284405E+01
(PID.TID 0000.0001) %MON dynstat_eta_mean             =  -2.5109972731344E+00
(PID.TID 0000.0001) %MON dynstat_eta_sd               =   4.9523640649247E+00
(PID.TID 0000.0001) %MON dynstat_eta_del2             =   2.0730695555494E-01
(PID.TID 0000.0001) %MON dynstat_uvel_max             =   2.5105196519837E-04
(PID.TID 0000.0001) %MON dynstat_uvel_min             =  -3.4288997799320E-04
(PID.TID 0000.0001) %MON dynstat_uvel_mean            =  -6.6301604869454E-06
(PID.TID 0000.0001) %MON dynstat_uvel_sd              =   3.1736635197247E-05
(PID.TID 0000.0001) %MON dynstat_uvel_del2            =   4.0747948625875E-08
(PID.TID 0000.0001) %MON dynstat_vvel_max             =   8.2590473963300E-04
(PID.TID 0000.0001) %MON dynstat_vvel_min             =  -1.2008462718050E-03
(PID.TID 0000.0001) %MON dynstat_vvel_mean            =  -1.2409540828225E-04
(PID.TID 0000.0001) %MON dynstat_vvel_sd              =   1.3828875977495E-04
(PID.TID 0000.0001) %MON dynstat_vvel_del2            =   5.0973672209764E-07
(PID.TID 0000.0001) %MON dynstat_wvel_max             =   2.9843757534288E-04
(PID.TID 0000.0001) %MON dynstat_wvel_min             =  -6.8379861282275E-04
(PID.TID 0000.0001) %MON dynstat_wvel_mean            =   1.0113095605202E-06
(PID.TID 0000.0001) %MON dynstat_wvel_sd              =   5.7511287304694E-05
(PID.TID 0000.0001) %MON dynstat_wvel_del2            =   3.4450607501512E-07
(PID.TID 0000.0001) %MON dynstat_theta_max            =   1.2000000000000E+00
(PID.TID 0000.0001) %MON dynstat_theta_min            =  -1.0000000000000E+00
(PID.TID 0000.0001) %MON dynstat_theta_mean           =   5.6914624457537E-01
(PID.TID 0000.0001) %MON dynstat_theta_sd             =   8.6860807627409E-01
(PID.TID 0000.0001) %MON dynstat_theta_del2           =   3.8762673170973E-06
(PID.TID 0000.0001) %MON dynstat_salt_max             =   3.4700000000000E+01
(PID.TID 0000.0001) %MON dynstat_salt_min             =   3.4000000000000E+01
(PID.TID 0000.0001) %MON dynstat_salt_mean            =   3.4499272812573E+01
(PID.TID 0000.0001) %MON dynstat_salt_sd              =   2.7637508264076E-01
(PID.TID 0000.0001) %MON dynstat_salt_del2            =   1.2340070712777E-06
(PID.TID 0000.0001) %MON advcfl_uvel_max              =   3.4288997799320E-05
(PID.TID 0000.0001) %MON advcfl_vvel_max              =   1.2008462718050E-04
(PID.TID 0000.0001) %MON advcfl_wvel_max              =   3.4189930641137E-03
(PID.TID 0000.0001) %MON advcfl_W_hf_max              =   3.4189930641137E-03
(PID.TID 0000.0001) %MON pe_b_mean                    =  -8.3235936407696E-01
(PID.TID 0000.0001) %MON ke_max                       =   5.6731247527928E-07
(PID.TID 0000.0001) %MON ke_mean                      =   1.7603690117166E-08
(PID.TID 0000.0001) %MON ke_vol                       =   4.2725832715752E+12
(PID.TID 0000.0001) // =======================================================
(PID.TID 0000.0001) // End MONITOR dynamic field statistics
(PID.TID 0000.0001) // =======================================================
(PID.TID 0000.0001) // =======================================================
(PID.TID 0000.0001) // Begin OBCS MONITOR field statistics
(PID.TID 0000.0001) // =======================================================
(PID.TID 0000.0001) %MON obc_N_vVel_max               =  -2.1085132300373E-04
(PID.TID 0000.0001) %MON obc_N_vVel_min               =  -2.1085132300373E-04
(PID.TID 0000.0001) %MON obc_N_vVel_mean              =  -2.1085132300373E-04
(PID.TID 0000.0001) %MON obc_N_vVel_sd                =  -3.3748968992164E-22
(PID.TID 0000.0001) %MON obc_N_vVel_Int               =  -1.3916187318246E+04
(PID.TID 0000.0001) // =======================================================
(PID.TID 0000.0001) // End OBCS MONITOR field statistics
(PID.TID 0000.0001) // =======================================================
 cg2d: Sum(rhs),rhsMax =   4.52173328447516E+00  2.99859170516015E+02
(PID.TID 0000.0001)      cg2d_init_res =   1.09834518137186E-05
(PID.TID 0000.0001)      cg2d_iters(min,last) =      -1      86
(PID.TID 0000.0001)      cg2d_last_res =   9.75696297651453E-12
(PID.TID 0000.0001) // =======================================================
(PID.TID 0000.0001) // Begin MONITOR dynamic field statistics
(PID.TID 0000.0001) // =======================================================
(PID.TID 0000.0001) %MON time_tsnumber                =                    39
(PID.TID 0000.0001) %MON time_secondsf                =   3.9000000000000E+03
(PID.TID 0000.0001) %MON dynstat_eta_max              =   5.7967867640143E+00
(PID.TID 0000.0001) %MON dynstat_eta_min              =  -1.4193405813379E+01
(PID.TID 0000.0001) %MON dynstat_eta_mean             =  -2.5108947999581E+00
(PID.TID 0000.0001) %MON dynstat_eta_sd               =   4.9524378713174E+00
(PID.TID 0000.0001) %MON dynstat_eta_del2             =   2.0730696242164E-01
(PID.TID 0000.0001) %MON dynstat_uvel_max             =   2.5539495472704E-04
(PID.TID 0000.0001) %MON dynstat_uvel_min             =  -3.5209890175048E-04
(PID.TID 0000.0001) %MON dynstat_uvel_mean            =  -6.6485180031377E-06
(PID.TID 0000.0001) %MON dynstat_uvel_sd              =   3.2081963318916E-05
(PID.TID 0000.0001) %MON dynstat_uvel_del2            =   4.6500217769129E-08
(PID.TID 0000.0001) %MON dynstat_vvel_max             =   9.3804130939243E-04
(PID.TID 0000.0001) %MON dynstat_vvel_min             =  -1.0117456269440E-03
(PID.TID 0000.0001) %MON dynstat_vvel_mean            =   1.2800411434708E-05
(PID.TID 0000.0001) %MON dynstat_vvel_sd              =   1.4485932489474E-04
(PID.TID 0000.0001) %MON dynstat_vvel_del2            =   5.3374562219150E-07
(PID.TID 0000.0001) %MON dynstat_wvel_max             =   3.8014392188724E-04
(PID.TID 0000.0001) %MON dynstat_wvel_min             =  -6.8664881628514E-04
(PID.TID 0000.0001) %MON dynstat_wvel_mean            =   1.1425245225604E-06
(PID.TID 0000.0001) %MON dynstat_wvel_sd              =   6.0991260060578E-05
(PID.TID 0000.0001) %MON dynstat_wvel_del2            =   3.6707001246367E-07
(PID.TID 0000.0001) %MON dynstat_theta_max            =   1.2000000000000E+00
(PID.TID 0000.0001) %MON dynstat_theta_min            =  -1.0000000000000E+00
(PID.TID 0000.0001) %MON dynstat_theta_mean           =   5.6914596270194E-01
(PID.TID 0000.0001) %MON dynstat_theta_sd             =   8.6860792192924E-01
(PID.TID 0000.0001) %MON dynstat_theta_del2           =   3.8423239094103E-06
(PID.TID 0000.0001) %MON dynstat_salt_max             =   3.4700000000000E+01
(PID.TID 0000.0001) %MON dynstat_salt_min             =   3.4000000000000E+01
(PID.TID 0000.0001) %MON dynstat_salt_mean            =   3.4499272701845E+01
(PID.TID 0000.0001) %MON dynstat_salt_sd              =   2.7637502763928E-01
(PID.TID 0000.0001) %MON dynstat_salt_del2            =   1.2232308747514E-06
(PID.TID 0000.0001) %MON advcfl_uvel_max              =   3.5209890175048E-05
(PID.TID 0000.0001) %MON advcfl_vvel_max              =   1.0117456269440E-04
(PID.TID 0000.0001) %MON advcfl_wvel_max              =   3.4332440814257E-03
(PID.TID 0000.0001) %MON advcfl_W_hf_max              =   3.4332440814257E-03
(PID.TID 0000.0001) %MON pe_b_mean                    =  -8.3237035701233E-01
(PID.TID 0000.0001) %MON ke_max                       =   4.3739248504078E-07
(PID.TID 0000.0001) %MON ke_mean                      =   1.1067742104470E-08
(PID.TID 0000.0001) %MON ke_vol                       =   4.2725846761976E+12
(PID.TID 0000.0001) // =======================================================
(PID.TID 0000.0001) // End MONITOR dynamic field statistics
(PID.TID 0000.0001) // =======================================================
(PID.TID 0000.0001) // =======================================================
(PID.TID 0000.0001) // Begin OBCS MONITOR field statistics
(PID.TID 0000.0001) // =======================================================
(PID.TID 0000.0001) %MON obc_N_vVel_max               =  -9.0255618515181E-05
(PID.TID 0000.0001) %MON obc_N_vVel_min               =  -9.0255618515183E-05
(PID.TID 0000.0001) %MON obc_N_vVel_mean              =  -9.0255618515181E-05
(PID.TID 0000.0001) %MON obc_N_vVel_sd                =   1.5327077150098E-11
(PID.TID 0000.0001) %MON obc_N_vVel_Int               =  -5.9568708220020E+03
(PID.TID 0000.0001) // =======================================================
(PID.TID 0000.0001) // End OBCS MONITOR field statistics
(PID.TID 0000.0001) // =======================================================
 cg2d: Sum(rhs),rhsMax =   4.52177822450583E+00  2.99859272196970E+02
(PID.TID 0000.0001)      cg2d_init_res =   1.23157547078892E-05
(PID.TID 0000.0001)      cg2d_iters(min,last) =      -1      92
(PID.TID 0000.0001)      cg2d_last_res =   9.12362716155866E-12
(PID.TID 0000.0001) // =======================================================
(PID.TID 0000.0001) // Begin MONITOR dynamic field statistics
(PID.TID 0000.0001) // =======================================================
(PID.TID 0000.0001) %MON time_tsnumber                =                    40
(PID.TID 0000.0001) %MON time_secondsf                =   4.0000000000000E+03
(PID.TID 0000.0001) %MON dynstat_eta_max              =   5.7968382932349E+00
(PID.TID 0000.0001) %MON dynstat_eta_min              =  -1.4193628138789E+01
(PID.TID 0000.0001) %MON dynstat_eta_mean             =  -2.5109206063637E+00
(PID.TID 0000.0001) %MON dynstat_eta_sd               =   4.9525466719546E+00
(PID.TID 0000.0001) %MON dynstat_eta_del2             =   2.0730696239126E-01
(PID.TID 0000.0001) %MON dynstat_uvel_max             =   2.9691233374685E-04
(PID.TID 0000.0001) %MON dynstat_uvel_min             =  -3.6055116791313E-04
(PID.TID 0000.0001) %MON dynstat_uvel_mean            =  -6.5337287081153E-06
(PID.TID 0000.0001) %MON dynstat_uvel_sd              =   3.2867205964299E-05
(PID.TID 0000.0001) %MON dynstat_uvel_del2            =   5.3375117282421E-08
(PID.TID 0000.0001) %MON dynstat_vvel_max             =   1.1120119521530E-03
(PID.TID 0000.0001) %MON dynstat_vvel_min             =  -8.1462204342610E-04
(PID.TID 0000.0001) %MON dynstat_vvel_mean            =   1.4083543865827E-04
(PID.TID 0000.0001) %MON dynstat_vvel_sd              =   1.5558861592817E-04
(PID.TID 0000.0001) %MON dynstat_vvel_del2            =   5.5140447258385E-07
(PID.TID 0000.0001) %MON dynstat_wvel_max             =   4.5070927653575E-04
(PID.TID 0000.0001) %MON dynstat_wvel_min             =  -6.8314538031767E-04
(PID.TID 0000.0001) %MON dynstat_wvel_mean            =   1.2362280844041E-06
(PID.TID 0000.0001) %MON dynstat_wvel_sd              =   6.3962906016496E-05
(PID.TID 0000.0001) %MON dynstat_wvel_del2            =   3.8267387672070E-07
(PID.TID 0000.0001) %MON dynstat_theta_max            =   1.2000000000000E+00
(PID.TID 0000.0001) %MON dynstat_theta_min            =  -1.0000000000000E+00
(PID.TID 0000.0001) %MON dynstat_theta_mean           =   5.6914573263136E-01
(PID.TID 0000.0001) %MON dynstat_theta_sd             =   8.6860774773971E-01
(PID.TID 0000.0001) %MON dynstat_theta_del2           =   3.8121722574534E-06
(PID.TID 0000.0001) %MON dynstat_salt_max             =   3.4700000000000E+01
(PID.TID 0000.0001) %MON dynstat_salt_min             =   3.4000000000000E+01
(PID.TID 0000.0001) %MON dynstat_salt_mean            =   3.4499272607599E+01
(PID.TID 0000.0001) %MON dynstat_salt_sd              =   2.7637496634244E-01
(PID.TID 0000.0001) %MON dynstat_salt_del2            =   1.2136586052325E-06
(PID.TID 0000.0001) %MON advcfl_uvel_max              =   3.6055116791313E-05
(PID.TID 0000.0001) %MON advcfl_vvel_max              =   1.1120119521530E-04
(PID.TID 0000.0001) %MON advcfl_wvel_max              =   3.4157269015884E-03
(PID.TID 0000.0001) %MON advcfl_W_hf_max              =   3.4157269015884E-03
(PID.TID 0000.0001) %MON pe_b_mean                    =  -8.3241284083365E-01
(PID.TID 0000.0001) %MON ke_max                       =   4.2429196504231E-07
(PID.TID 0000.0001) %MON ke_mean                      =   2.2567177252523E-08
(PID.TID 0000.0001) %MON ke_vol                       =   4.2725852848882E+12
(PID.TID 0000.0001) // =======================================================
(PID.TID 0000.0001) // End MONITOR dynamic field statistics
(PID.TID 0000.0001) // =======================================================
(PID.TID 0000.0001) // =======================================================
(PID.TID 0000.0001) // Begin OBCS MONITOR field statistics
(PID.TID 0000.0001) // =======================================================
(PID.TID 0000.0001) %MON obc_N_vVel_max               =   2.5195996197232E-05
(PID.TID 0000.0001) %MON obc_N_vVel_min               =   2.5195996197232E-05
(PID.TID 0000.0001) %MON obc_N_vVel_mean              =   2.5195996197232E-05
(PID.TID 0000.0001) %MON obc_N_vVel_sd                =   2.7094700471509E-12
(PID.TID 0000.0001) %MON obc_N_vVel_Int               =   1.6629357490173E+03
(PID.TID 0000.0001) // =======================================================
(PID.TID 0000.0001) // End OBCS MONITOR field statistics
(PID.TID 0000.0001) // =======================================================
 cg2d: Sum(rhs),rhsMax =   4.52203890091494E+00  2.99859323491872E+02
(PID.TID 0000.0001)      cg2d_init_res =   1.43254130529666E-05
(PID.TID 0000.0001)      cg2d_iters(min,last) =      -1      93
(PID.TID 0000.0001)      cg2d_last_res =   8.71019275008428E-12
(PID.TID 0000.0001) // =======================================================
(PID.TID 0000.0001) // Begin MONITOR dynamic field statistics
(PID.TID 0000.0001) // =======================================================
(PID.TID 0000.0001) %MON time_tsnumber                =                    41
(PID.TID 0000.0001) %MON time_secondsf                =   4.1000000000000E+03
(PID.TID 0000.0001) %MON dynstat_eta_max              =   5.7967966683452E+00
(PID.TID 0000.0001) %MON dynstat_eta_min              =  -1.4194016338809E+01
(PID.TID 0000.0001) %MON dynstat_eta_mean             =  -2.5110657882079E+00
(PID.TID 0000.0001) %MON dynstat_eta_sd               =   4.9526854250154E+00
(PID.TID 0000.0001) %MON dynstat_eta_del2             =   2.0730696238896E-01
(PID.TID 0000.0001) %MON dynstat_uvel_max             =   3.4523953500987E-04
(PID.TID 0000.0001) %MON dynstat_uvel_min             =  -3.6821117579428E-04
(PID.TID 0000.0001) %MON dynstat_uvel_mean            =  -6.2696941596368E-06
(PID.TID 0000.0001) %MON dynstat_uvel_sd              =   3.3992437965946E-05
(PID.TID 0000.0001) %MON dynstat_uvel_del2            =   6.0941464976418E-08
(PID.TID 0000.0001) %MON dynstat_vvel_max             =   1.2521344050125E-03
(PID.TID 0000.0001) %MON dynstat_vvel_min             =  -7.4840416950100E-04
(PID.TID 0000.0001) %MON dynstat_vvel_mean            =   2.5715537778162E-04
(PID.TID 0000.0001) %MON dynstat_vvel_sd              =   1.6791867837534E-04
(PID.TID 0000.0001) %MON dynstat_vvel_del2            =   5.6215852412378E-07
(PID.TID 0000.0001) %MON dynstat_wvel_max             =   5.1596182227504E-04
(PID.TID 0000.0001) %MON dynstat_wvel_min             =  -6.7417044884894E-04
(PID.TID 0000.0001) %MON dynstat_wvel_mean            =   1.2936776503377E-06
(PID.TID 0000.0001) %MON dynstat_wvel_sd              =   6.6200882777946E-05
(PID.TID 0000.0001) %MON dynstat_wvel_del2            =   3.9082535215260E-07
(PID.TID 0000.0001) %MON dynstat_theta_max            =   1.2000000000000E+00
(PID.TID 0000.0001) %MON dynstat_theta_min            =  -1.0000000000000E+00
(PID.TID 0000.0001) %MON dynstat_theta_mean           =   5.6914555056353E-01
(PID.TID 0000.0001) %MON dynstat_theta_sd             =   8.6860755599080E-01
(PID.TID 0000.0001) %MON dynstat_theta_del2           =   3.7867837549683E-06
(PID.TID 0000.0001) %MON dynstat_salt_max             =   3.4700000000000E+01
(PID.TID 0000.0001) %MON dynstat_salt_min             =   3.4000000000000E+01
(PID.TID 0000.0001) %MON dynstat_salt_mean            =   3.4499272528627E+01
(PID.TID 0000.0001) %MON dynstat_salt_sd              =   2.7637489948781E-01
(PID.TID 0000.0001) %MON dynstat_salt_del2            =   1.2055989966800E-06
(PID.TID 0000.0001) %MON advcfl_uvel_max              =   3.6821117579428E-05
(PID.TID 0000.0001) %MON advcfl_vvel_max              =   1.2521344050125E-04
(PID.TID 0000.0001) %MON advcfl_wvel_max              =   3.3708522442447E-03
(PID.TID 0000.0001) %MON advcfl_W_hf_max              =   3.3708522442447E-03
(PID.TID 0000.0001) %MON pe_b_mean                    =  -8.3248376785277E-01
(PID.TID 0000.0001) %MON ke_max                       =   5.0450254536977E-07
(PID.TID 0000.0001) %MON ke_mean                      =   4.7676260511891E-08
(PID.TID 0000.0001) %MON ke_vol                       =   4.2725851315982E+12
(PID.TID 0000.0001) // =======================================================
(PID.TID 0000.0001) // End MONITOR dynamic field statistics
(PID.TID 0000.0001) // =======================================================
(PID.TID 0000.0001) // =======================================================
(PID.TID 0000.0001) // Begin OBCS MONITOR field statistics
(PID.TID 0000.0001) // =======================================================
(PID.TID 0000.0001) %MON obc_N_vVel_max               =   1.3263388208622E-04
(PID.TID 0000.0001) %MON obc_N_vVel_min               =   1.3263388208622E-04
(PID.TID 0000.0001) %MON obc_N_vVel_mean              =   1.3263388208622E-04
(PID.TID 0000.0001) %MON obc_N_vVel_sd                =   1.2862197421537E-11
(PID.TID 0000.0001) %MON obc_N_vVel_Int               =   8.7538362176907E+03
(PID.TID 0000.0001) // =======================================================
(PID.TID 0000.0001) // End OBCS MONITOR field statistics
(PID.TID 0000.0001) // =======================================================
 cg2d: Sum(rhs),rhsMax =   4.52249435164533E+00  2.99859328676621E+02
(PID.TID 0000.0001)      cg2d_init_res =   1.63798350395050E-05
(PID.TID 0000.0001)      cg2d_iters(min,last) =      -1      94
(PID.TID 0000.0001)      cg2d_last_res =   7.61408418993459E-12
(PID.TID 0000.0001) // =======================================================
(PID.TID 0000.0001) // Begin MONITOR dynamic field statistics
(PID.TID 0000.0001) // =======================================================
(PID.TID 0000.0001) %MON time_tsnumber                =                    42
(PID.TID 0000.0001) %MON time_secondsf                =   4.2000000000000E+03
(PID.TID 0000.0001) %MON dynstat_eta_max              =   5.7966718846033E+00
(PID.TID 0000.0001) %MON dynstat_eta_min              =  -1.4194548790726E+01
(PID.TID 0000.0001) %MON dynstat_eta_mean             =  -2.5113187411633E+00
(PID.TID 0000.0001) %MON dynstat_eta_sd               =   4.9528485052058E+00
(PID.TID 0000.0001) %MON dynstat_eta_del2             =   2.0730696242020E-01
(PID.TID 0000.0001) %MON dynstat_uvel_max             =   3.9209493531089E-04
(PID.TID 0000.0001) %MON dynstat_uvel_min             =  -3.7505101302143E-04
(PID.TID 0000.0001) %MON dynstat_uvel_mean            =  -5.8470503230018E-06
(PID.TID 0000.0001) %MON dynstat_uvel_sd              =   3.5357236748679E-05
(PID.TID 0000.0001) %MON dynstat_uvel_del2            =   6.8921221498175E-08
(PID.TID 0000.0001) %MON dynstat_vvel_max             =   1.3559148103779E-03
(PID.TID 0000.0001) %MON dynstat_vvel_min             =  -7.0509789065651E-04
(PID.TID 0000.0001) %MON dynstat_vvel_mean            =   3.5944376534212E-04
(PID.TID 0000.0001) %MON dynstat_vvel_sd              =   1.7984388208544E-04
(PID.TID 0000.0001) %MON dynstat_vvel_del2            =   5.6610286791171E-07
(PID.TID 0000.0001) %MON dynstat_wvel_max             =   5.6870569904308E-04
(PID.TID 0000.0001) %MON dynstat_wvel_min             =  -6.5058251180617E-04
(PID.TID 0000.0001) %MON dynstat_wvel_mean            =   1.3168132263065E-06
(PID.TID 0000.0001) %MON dynstat_wvel_sd              =   6.7576311186031E-05
(PID.TID 0000.0001) %MON dynstat_wvel_del2            =   3.9150687003028E-07
(PID.TID 0000.0001) %MON dynstat_theta_max            =   1.2000000000000E+00
(PID.TID 0000.0001) %MON dynstat_theta_min            =  -1.0000000000000E+00
(PID.TID 0000.0001) %MON dynstat_theta_mean           =   5.6914541154476E-01
(PID.TID 0000.0001) %MON dynstat_theta_sd             =   8.6860734921820E-01
(PID.TID 0000.0001) %MON dynstat_theta_del2           =   3.7665269609769E-06
(PID.TID 0000.0001) %MON dynstat_salt_max             =   3.4700000000000E+01
(PID.TID 0000.0001) %MON dynstat_salt_min             =   3.4000000000000E+01
(PID.TID 0000.0001) %MON dynstat_salt_mean            =   3.4499272463354E+01
(PID.TID 0000.0001) %MON dynstat_salt_sd              =   2.7637482788602E-01
(PID.TID 0000.0001) %MON dynstat_salt_del2            =   1.1991690182222E-06
(PID.TID 0000.0001) %MON advcfl_uvel_max              =   3.9209493531089E-05
(PID.TID 0000.0001) %MON advcfl_vvel_max              =   1.3559148103779E-04
(PID.TID 0000.0001) %MON advcfl_wvel_max              =   3.2529125590309E-03
(PID.TID 0000.0001) %MON advcfl_W_hf_max              =   3.2529125590309E-03
(PID.TID 0000.0001) %MON pe_b_mean                    =  -8.3257954020518E-01
(PID.TID 0000.0001) %MON ke_max                       =   5.7396336693304E-07
(PID.TID 0000.0001) %MON ke_mean                      =   8.1190521192338E-08
(PID.TID 0000.0001) %MON ke_vol                       =   4.2725842692180E+12
(PID.TID 0000.0001) // =======================================================
(PID.TID 0000.0001) // End MONITOR dynamic field statistics
(PID.TID 0000.0001) // =======================================================
(PID.TID 0000.0001) // =======================================================
(PID.TID 0000.0001) // Begin OBCS MONITOR field statistics
(PID.TID 0000.0001) // =======================================================
(PID.TID 0000.0001) %MON obc_N_vVel_max               =   2.2962787353955E-04
(PID.TID 0000.0001) %MON obc_N_vVel_min               =   2.2962787353954E-04
(PID.TID 0000.0001) %MON obc_N_vVel_mean              =   2.2962787353954E-04
(PID.TID 0000.0001) %MON obc_N_vVel_sd                =   3.1082904553177E-11
(PID.TID 0000.0001) %MON obc_N_vVel_Int               =   1.5155439653610E+04
(PID.TID 0000.0001) // =======================================================
(PID.TID 0000.0001) // End OBCS MONITOR field statistics
(PID.TID 0000.0001) // =======================================================
 cg2d: Sum(rhs),rhsMax =   4.52311981581259E+00  2.99859293018945E+02
(PID.TID 0000.0001)      cg2d_init_res =   1.81824884321164E-05
(PID.TID 0000.0001)      cg2d_iters(min,last) =      -1      94
(PID.TID 0000.0001)      cg2d_last_res =   8.60862350052036E-12
(PID.TID 0000.0001) // =======================================================
(PID.TID 0000.0001) // Begin MONITOR dynamic field statistics
(PID.TID 0000.0001) // =======================================================
(PID.TID 0000.0001) %MON time_tsnumber                =                    43
(PID.TID 0000.0001) %MON time_secondsf                =   4.3000000000000E+03
(PID.TID 0000.0001) %MON dynstat_eta_max              =   5.7964747470879E+00
(PID.TID 0000.0001) %MON dynstat_eta_min              =  -1.4195443958397E+01
(PID.TID 0000.0001) %MON dynstat_eta_mean             =  -2.5116657596473E+00
(PID.TID 0000.0001) %MON dynstat_eta_sd               =   4.9530300696295E+00
(PID.TID 0000.0001) %MON dynstat_eta_del2             =   2.0730696244921E-01
(PID.TID 0000.0001) %MON dynstat_uvel_max             =   4.3738089628143E-04
(PID.TID 0000.0001) %MON dynstat_uvel_min             =  -4.0773178988029E-04
(PID.TID 0000.0001) %MON dynstat_uvel_mean            =  -5.2639610950187E-06
(PID.TID 0000.0001) %MON dynstat_uvel_sd              =   3.6856874589975E-05
(PID.TID 0000.0001) %MON dynstat_uvel_del2            =   7.7136036517909E-08
(PID.TID 0000.0001) %MON dynstat_vvel_max             =   1.4227787711053E-03
(PID.TID 0000.0001) %MON dynstat_vvel_min             =  -6.6746511761917E-04
(PID.TID 0000.0001) %MON dynstat_vvel_mean            =   4.4593554641884E-04
(PID.TID 0000.0001) %MON dynstat_vvel_sd              =   1.8999124832974E-04
(PID.TID 0000.0001) %MON dynstat_vvel_del2            =   5.6392418604231E-07
(PID.TID 0000.0001) %MON dynstat_wvel_max             =   6.0478098421669E-04
(PID.TID 0000.0001) %MON dynstat_wvel_min             =  -6.1286912074424E-04
(PID.TID 0000.0001) %MON dynstat_wvel_mean            =   1.3074549967469E-06
(PID.TID 0000.0001) %MON dynstat_wvel_sd              =   6.8045119834701E-05
(PID.TID 0000.0001) %MON dynstat_wvel_del2            =   3.8514295310857E-07
(PID.TID 0000.0001) %MON dynstat_theta_max            =   1.2000000000000E+00
(PID.TID 0000.0001) %MON dynstat_theta_min            =  -1.0000000000000E+00
(PID.TID 0000.0001) %MON dynstat_theta_mean           =   5.6914530954829E-01
(PID.TID 0000.0001) %MON dynstat_theta_sd             =   8.6860713021673E-01
(PID.TID 0000.0001) %MON dynstat_theta_del2           =   3.7511370447330E-06
(PID.TID 0000.0001) %MON dynstat_salt_max             =   3.4700000000000E+01
(PID.TID 0000.0001) %MON dynstat_salt_min             =   3.4000000000000E+01
(PID.TID 0000.0001) %MON dynstat_salt_mean            =   3.4499272409861E+01
(PID.TID 0000.0001) %MON dynstat_salt_sd              =   2.7637475242482E-01
(PID.TID 0000.0001) %MON dynstat_salt_del2            =   1.1942841947768E-06
(PID.TID 0000.0001) %MON advcfl_uvel_max              =   4.3738089628143E-05
(PID.TID 0000.0001) %MON advcfl_vvel_max              =   1.4227787711053E-04
(PID.TID 0000.0001) %MON advcfl_wvel_max              =   3.0643456037212E-03
(PID.TID 0000.0001) %MON advcfl_W_hf_max              =   3.0643456037212E-03
(PID.TID 0000.0001) %MON pe_b_mean                    =  -8.3269614019268E-01
(PID.TID 0000.0001) %MON ke_max                       =   6.6678478681238E-07
(PID.TID 0000.0001) %MON ke_mean                      =   1.1776513538159E-07
(PID.TID 0000.0001) %MON ke_vol                       =   4.2725827666775E+12
(PID.TID 0000.0001) // =======================================================
(PID.TID 0000.0001) // End MONITOR dynamic field statistics
(PID.TID 0000.0001) // =======================================================
(PID.TID 0000.0001) // =======================================================
(PID.TID 0000.0001) // Begin OBCS MONITOR field statistics
(PID.TID 0000.0001) // =======================================================
(PID.TID 0000.0001) %MON obc_N_vVel_max               =   3.1428684087988E-04
(PID.TID 0000.0001) %MON obc_N_vVel_min               =   3.1428684087987E-04
(PID.TID 0000.0001) %MON obc_N_vVel_mean              =   3.1428684087987E-04
(PID.TID 0000.0001) %MON obc_N_vVel_sd                =   6.2059269509453E-11
(PID.TID 0000.0001) %MON obc_N_vVel_Int               =   2.0742931498072E+04
(PID.TID 0000.0001) // =======================================================
(PID.TID 0000.0001) // End OBCS MONITOR field statistics
(PID.TID 0000.0001) // =======================================================
 cg2d: Sum(rhs),rhsMax =   4.52388780713032E+00  2.99859222434496E+02
(PID.TID 0000.0001)      cg2d_init_res =   1.95866562334351E-05
(PID.TID 0000.0001)      cg2d_iters(min,last) =      -1      94
(PID.TID 0000.0001)      cg2d_last_res =   9.40459260490310E-12
(PID.TID 0000.0001) // =======================================================
(PID.TID 0000.0001) // Begin MONITOR dynamic field statistics
(PID.TID 0000.0001) // =======================================================
(PID.TID 0000.0001) %MON time_tsnumber                =                    44
(PID.TID 0000.0001) %MON time_secondsf                =   4.4000000000000E+03
(PID.TID 0000.0001) %MON dynstat_eta_max              =   5.7962161065830E+00
(PID.TID 0000.0001) %MON dynstat_eta_min              =  -1.4196696110199E+01
(PID.TID 0000.0001) %MON dynstat_eta_mean             =  -2.5120916300500E+00
(PID.TID 0000.0001) %MON dynstat_eta_sd               =   4.9532242555105E+00
(PID.TID 0000.0001) %MON dynstat_eta_del2             =   2.0730696249648E-01
(PID.TID 0000.0001) %MON dynstat_uvel_max             =   4.8102929688909E-04
(PID.TID 0000.0001) %MON dynstat_uvel_min             =  -4.5147292213432E-04
(PID.TID 0000.0001) %MON dynstat_uvel_mean            =  -4.5282089734447E-06
(PID.TID 0000.0001) %MON dynstat_uvel_sd              =   3.8384720628950E-05
(PID.TID 0000.0001) %MON dynstat_uvel_del2            =   8.5467834215919E-08
(PID.TID 0000.0001) %MON dynstat_vvel_max             =   1.4895814886499E-03
(PID.TID 0000.0001) %MON dynstat_vvel_min             =  -6.3517527938236E-04
(PID.TID 0000.0001) %MON dynstat_vvel_mean            =   5.1541281424879E-04
(PID.TID 0000.0001) %MON dynstat_vvel_sd              =   1.9751020809780E-04
(PID.TID 0000.0001) %MON dynstat_vvel_del2            =   5.5683607362604E-07
(PID.TID 0000.0001) %MON dynstat_wvel_max             =   6.2402467884302E-04
(PID.TID 0000.0001) %MON dynstat_wvel_min             =  -5.6189616233015E-04
(PID.TID 0000.0001) %MON dynstat_wvel_mean            =   1.2674135009907E-06
(PID.TID 0000.0001) %MON dynstat_wvel_sd              =   6.7637807801401E-05
(PID.TID 0000.0001) %MON dynstat_wvel_del2            =   3.7258351236149E-07
(PID.TID 0000.0001) %MON dynstat_theta_max            =   1.2000000000000E+00
(PID.TID 0000.0001) %MON dynstat_theta_min            =  -1.0000000000000E+00
(PID.TID 0000.0001) %MON dynstat_theta_mean           =   5.6914523777716E-01
(PID.TID 0000.0001) %MON dynstat_theta_sd             =   8.6860690197933E-01
(PID.TID 0000.0001) %MON dynstat_theta_del2           =   3.7397776965842E-06
(PID.TID 0000.0001) %MON dynstat_salt_max             =   3.4700000000000E+01
(PID.TID 0000.0001) %MON dynstat_salt_min             =   3.4000000000000E+01
(PID.TID 0000.0001) %MON dynstat_salt_mean            =   3.4499272365986E+01
(PID.TID 0000.0001) %MON dynstat_salt_sd              =   2.7637467405405E-01
(PID.TID 0000.0001) %MON dynstat_salt_del2            =   1.1906783122973E-06
(PID.TID 0000.0001) %MON advcfl_uvel_max              =   4.8102929688909E-05
(PID.TID 0000.0001) %MON advcfl_vvel_max              =   1.4895814886499E-04
(PID.TID 0000.0001) %MON advcfl_wvel_max              =   3.1201233942151E-03
(PID.TID 0000.0001) %MON advcfl_W_hf_max              =   3.1201233942151E-03
(PID.TID 0000.0001) %MON pe_b_mean                    =  -8.3282926284544E-01
(PID.TID 0000.0001) %MON ke_max                       =   8.0258183335878E-07
(PID.TID 0000.0001) %MON ke_mean                      =   1.5247589228183E-07
(PID.TID 0000.0001) %MON ke_vol                       =   4.2725807053877E+12
(PID.TID 0000.0001) // =======================================================
(PID.TID 0000.0001) // End MONITOR dynamic field statistics
(PID.TID 0000.0001) // =======================================================
(PID.TID 0000.0001) // =======================================================
(PID.TID 0000.0001) // Begin OBCS MONITOR field statistics
(PID.TID 0000.0001) // =======================================================
(PID.TID 0000.0001) %MON obc_N_vVel_max               =   3.8525368725065E-04
(PID.TID 0000.0001) %MON obc_N_vVel_min               =   3.8525368725064E-04
(PID.TID 0000.0001) %MON obc_N_vVel_mean              =   3.8525368725065E-04
(PID.TID 0000.0001) %MON obc_N_vVel_sd                =  -1.2096689277975E-20
(PID.TID 0000.0001) %MON obc_N_vVel_Int               =   2.5426743358543E+04
(PID.TID 0000.0001) // =======================================================
(PID.TID 0000.0001) // End OBCS MONITOR field statistics
(PID.TID 0000.0001) // =======================================================
 cg2d: Sum(rhs),rhsMax =   4.52476911162009E+00  2.99859123712934E+02
(PID.TID 0000.0001)      cg2d_init_res =   2.05261518154759E-05
(PID.TID 0000.0001)      cg2d_iters(min,last) =      -1      94
(PID.TID 0000.0001)      cg2d_last_res =   9.96123562387681E-12
(PID.TID 0000.0001) // =======================================================
(PID.TID 0000.0001) // Begin MONITOR dynamic field statistics
(PID.TID 0000.0001) // =======================================================
(PID.TID 0000.0001) %MON time_tsnumber                =                    45
(PID.TID 0000.0001) %MON time_secondsf                =   4.5000000000000E+03
(PID.TID 0000.0001) %MON dynstat_eta_max              =   5.7959066214844E+00
(PID.TID 0000.0001) %MON dynstat_eta_min              =  -1.4198044333793E+01
(PID.TID 0000.0001) %MON dynstat_eta_mean             =  -2.5125801866921E+00
(PID.TID 0000.0001) %MON dynstat_eta_sd               =   4.9534253208838E+00
(PID.TID 0000.0001) %MON dynstat_eta_del2             =   2.0730696259039E-01
(PID.TID 0000.0001) %MON dynstat_uvel_max             =   5.2299435582270E-04
(PID.TID 0000.0001) %MON dynstat_uvel_min             =  -4.9483073235912E-04
(PID.TID 0000.0001) %MON dynstat_uvel_mean            =  -3.6581880778114E-06
(PID.TID 0000.0001) %MON dynstat_uvel_sd              =   3.9842346816456E-05
(PID.TID 0000.0001) %MON dynstat_uvel_del2            =   9.3834912483634E-08
(PID.TID 0000.0001) %MON dynstat_vvel_max             =   1.5807787945246E-03
(PID.TID 0000.0001) %MON dynstat_vvel_min             =  -6.0754934726326E-04
(PID.TID 0000.0001) %MON dynstat_vvel_mean            =   5.6718824046545E-04
(PID.TID 0000.0001) %MON dynstat_vvel_sd              =   2.0195125434800E-04
(PID.TID 0000.0001) %MON dynstat_vvel_del2            =   5.4649250908283E-07
(PID.TID 0000.0001) %MON dynstat_wvel_max             =   6.2673286140952E-04
(PID.TID 0000.0001) %MON dynstat_wvel_min             =  -4.9965737100556E-04
(PID.TID 0000.0001) %MON dynstat_wvel_mean            =   1.1987099680287E-06
(PID.TID 0000.0001) %MON dynstat_wvel_sd              =   6.6450855565953E-05
(PID.TID 0000.0001) %MON dynstat_wvel_del2            =   3.5509916833454E-07
(PID.TID 0000.0001) %MON dynstat_theta_max            =   1.2000000000000E+00
(PID.TID 0000.0001) %MON dynstat_theta_min            =  -1.0000000000000E+00
(PID.TID 0000.0001) %MON dynstat_theta_mean           =   5.6914518900622E-01
(PID.TID 0000.0001) %MON dynstat_theta_sd             =   8.6860666754829E-01
(PID.TID 0000.0001) %MON dynstat_theta_del2           =   3.7311931132166E-06
(PID.TID 0000.0001) %MON dynstat_salt_max             =   3.4700000000000E+01
(PID.TID 0000.0001) %MON dynstat_salt_min             =   3.4000000000000E+01
(PID.TID 0000.0001) %MON dynstat_salt_mean            =   3.4499272329426E+01
(PID.TID 0000.0001) %MON dynstat_salt_sd              =   2.7637459373909E-01
(PID.TID 0000.0001) %MON dynstat_salt_del2            =   1.1879517510340E-06
(PID.TID 0000.0001) %MON advcfl_uvel_max              =   5.2299435582270E-05
(PID.TID 0000.0001) %MON advcfl_vvel_max              =   1.5807787945246E-04
(PID.TID 0000.0001) %MON advcfl_wvel_max              =   3.1336643070476E-03
(PID.TID 0000.0001) %MON advcfl_W_hf_max              =   3.1336643070476E-03
(PID.TID 0000.0001) %MON pe_b_mean                    =  -8.3297444696431E-01
(PID.TID 0000.0001) %MON ke_max                       =   9.2705946527827E-07
(PID.TID 0000.0001) %MON ke_mean                      =   1.8125865174136E-07
(PID.TID 0000.0001) %MON ke_vol                       =   4.2725781757175E+12
(PID.TID 0000.0001) // =======================================================
(PID.TID 0000.0001) // End MONITOR dynamic field statistics
(PID.TID 0000.0001) // =======================================================
(PID.TID 0000.0001) // =======================================================
(PID.TID 0000.0001) // Begin OBCS MONITOR field statistics
(PID.TID 0000.0001) // =======================================================
(PID.TID 0000.0001) %MON obc_N_vVel_max               =   4.4167158921889E-04
(PID.TID 0000.0001) %MON obc_N_vVel_min               =   4.4167158921889E-04
(PID.TID 0000.0001) %MON obc_N_vVel_mean              =   4.4167158921889E-04
(PID.TID 0000.0001) %MON obc_N_vVel_sd                =  -1.0455562942670E-20
(PID.TID 0000.0001) %MON obc_N_vVel_Int               =   2.9150324888447E+04
(PID.TID 0000.0001) // =======================================================
(PID.TID 0000.0001) // End OBCS MONITOR field statistics
(PID.TID 0000.0001) // =======================================================
 cg2d: Sum(rhs),rhsMax =   4.52573370658874E+00  2.99859003471429E+02
(PID.TID 0000.0001)      cg2d_init_res =   2.09833148850199E-05
(PID.TID 0000.0001)      cg2d_iters(min,last) =      -1      95
(PID.TID 0000.0001)      cg2d_last_res =   7.78943682882080E-12
(PID.TID 0000.0001) // =======================================================
(PID.TID 0000.0001) // Begin MONITOR dynamic field statistics
(PID.TID 0000.0001) // =======================================================
(PID.TID 0000.0001) %MON time_tsnumber                =                    46
(PID.TID 0000.0001) %MON time_secondsf                =   4.6000000000000E+03
(PID.TID 0000.0001) %MON dynstat_eta_max              =   5.7955567163938E+00
(PID.TID 0000.0001) %MON dynstat_eta_min              =  -1.4199445887716E+01
(PID.TID 0000.0001) %MON dynstat_eta_mean             =  -2.5131148133977E+00
(PID.TID 0000.0001) %MON dynstat_eta_sd               =   4.9536277577736E+00
(PID.TID 0000.0001) %MON dynstat_eta_del2             =   2.0730696275392E-01
(PID.TID 0000.0001) %MON dynstat_uvel_max             =   5.6325001604662E-04
(PID.TID 0000.0001) %MON dynstat_uvel_min             =  -5.3773686209624E-04
(PID.TID 0000.0001) %MON dynstat_uvel_mean            =  -2.6823632911853E-06
(PID.TID 0000.0001) %MON dynstat_uvel_sd              =   4.1153479717313E-05
(PID.TID 0000.0001) %MON dynstat_uvel_del2            =   1.0217818739106E-07
(PID.TID 0000.0001) %MON dynstat_vvel_max             =   1.6569959341215E-03
(PID.TID 0000.0001) %MON dynstat_vvel_min             =  -5.8365384547727E-04
(PID.TID 0000.0001) %MON dynstat_vvel_mean            =   6.0107849384131E-04
(PID.TID 0000.0001) %MON dynstat_vvel_sd              =   2.0317637132991E-04
(PID.TID 0000.0001) %MON dynstat_vvel_del2            =   5.3485938729185E-07
(PID.TID 0000.0001) %MON dynstat_wvel_max             =   6.1361706577673E-04
(PID.TID 0000.0001) %MON dynstat_wvel_min             =  -4.2911646960496E-04
(PID.TID 0000.0001) %MON dynstat_wvel_mean            =   1.1038139547526E-06
(PID.TID 0000.0001) %MON dynstat_wvel_sd              =   6.4638937267657E-05
(PID.TID 0000.0001) %MON dynstat_wvel_del2            =   3.3438260453201E-07
(PID.TID 0000.0001) %MON dynstat_theta_max            =   1.2000000000000E+00
(PID.TID 0000.0001) %MON dynstat_theta_min            =  -1.0000000000000E+00
(PID.TID 0000.0001) %MON dynstat_theta_mean           =   5.6914515588639E-01
(PID.TID 0000.0001) %MON dynstat_theta_sd             =   8.6860642998285E-01
(PID.TID 0000.0001) %MON dynstat_theta_del2           =   3.7238769001046E-06
(PID.TID 0000.0001) %MON dynstat_salt_max             =   3.4700000000000E+01
(PID.TID 0000.0001) %MON dynstat_salt_min             =   3.4000000000000E+01
(PID.TID 0000.0001) %MON dynstat_salt_mean            =   3.4499272297843E+01
(PID.TID 0000.0001) %MON dynstat_salt_sd              =   2.7637451245122E-01
(PID.TID 0000.0001) %MON dynstat_salt_del2            =   1.1856251507744E-06
(PID.TID 0000.0001) %MON advcfl_uvel_max              =   5.6325001604662E-05
(PID.TID 0000.0001) %MON advcfl_vvel_max              =   1.6569959341215E-04
(PID.TID 0000.0001) %MON advcfl_wvel_max              =   3.0680853288836E-03
(PID.TID 0000.0001) %MON advcfl_W_hf_max              =   3.0680853288836E-03
(PID.TID 0000.0001) %MON pe_b_mean                    =  -8.3312720119409E-01
(PID.TID 0000.0001) %MON ke_max                       =   1.0295001482415E-06
(PID.TID 0000.0001) %MON ke_mean                      =   2.0120240852680E-07
(PID.TID 0000.0001) %MON ke_vol                       =   4.2725752736910E+12
(PID.TID 0000.0001) // =======================================================
(PID.TID 0000.0001) // End MONITOR dynamic field statistics
(PID.TID 0000.0001) // =======================================================
(PID.TID 0000.0001) // =======================================================
(PID.TID 0000.0001) // Begin OBCS MONITOR field statistics
(PID.TID 0000.0001) // =======================================================
(PID.TID 0000.0001) %MON obc_N_vVel_max               =   4.8313516363567E-04
(PID.TID 0000.0001) %MON obc_N_vVel_min               =   4.8313516363565E-04
(PID.TID 0000.0001) %MON obc_N_vVel_mean              =   4.8313516363567E-04
(PID.TID 0000.0001) %MON obc_N_vVel_sd                =  -1.7972980349552E-20
(PID.TID 0000.0001) %MON obc_N_vVel_Int               =   3.1886920799954E+04
(PID.TID 0000.0001) // =======================================================
(PID.TID 0000.0001) // End OBCS MONITOR field statistics
(PID.TID 0000.0001) // =======================================================
 cg2d: Sum(rhs),rhsMax =   4.52675157238434E+00  2.99858867564314E+02
(PID.TID 0000.0001)      cg2d_init_res =   2.09729006964534E-05
(PID.TID 0000.0001)      cg2d_iters(min,last) =      -1      95
(PID.TID 0000.0001)      cg2d_last_res =   7.74522219359654E-12
(PID.TID 0000.0001) // =======================================================
(PID.TID 0000.0001) // Begin MONITOR dynamic field statistics
(PID.TID 0000.0001) // =======================================================
(PID.TID 0000.0001) %MON time_tsnumber                =                    47
(PID.TID 0000.0001) %MON time_secondsf                =   4.7000000000000E+03
(PID.TID 0000.0001) %MON dynstat_eta_max              =   5.7951765662921E+00
(PID.TID 0000.0001) %MON dynstat_eta_min              =  -1.4200858337021E+01
(PID.TID 0000.0001) %MON dynstat_eta_mean             =  -2.5136788893336E+00
(PID.TID 0000.0001) %MON dynstat_eta_sd               =   4.9538263900413E+00
(PID.TID 0000.0001) %MON dynstat_eta_del2             =   2.0730696300848E-01
(PID.TID 0000.0001) %MON dynstat_uvel_max             =   6.0178824735679E-04
(PID.TID 0000.0001) %MON dynstat_uvel_min             =  -5.8012874309554E-04
(PID.TID 0000.0001) %MON dynstat_uvel_mean            =  -1.6375023038207E-06
(PID.TID 0000.0001) %MON dynstat_uvel_sd              =   4.2275125327573E-05
(PID.TID 0000.0001) %MON dynstat_uvel_del2            =   1.1045338782639E-07
(PID.TID 0000.0001) %MON dynstat_vvel_max             =   1.7175564240421E-03
(PID.TID 0000.0001) %MON dynstat_vvel_min             =  -5.6238296226997E-04
(PID.TID 0000.0001) %MON dynstat_vvel_mean            =   6.1736944077143E-04
(PID.TID 0000.0001) %MON dynstat_vvel_sd              =   2.0129866520288E-04
(PID.TID 0000.0001) %MON dynstat_vvel_del2            =   5.2402626395589E-07
(PID.TID 0000.0001) %MON dynstat_wvel_max             =   5.8576081824902E-04
(PID.TID 0000.0001) %MON dynstat_wvel_min             =  -4.7292101177525E-04
(PID.TID 0000.0001) %MON dynstat_wvel_mean            =   9.8581148477964E-07
(PID.TID 0000.0001) %MON dynstat_wvel_sd              =   6.2406905957575E-05
(PID.TID 0000.0001) %MON dynstat_wvel_del2            =   3.1254427485049E-07
(PID.TID 0000.0001) %MON dynstat_theta_max            =   1.2000000000000E+00
(PID.TID 0000.0001) %MON dynstat_theta_min            =  -1.0000000000000E+00
(PID.TID 0000.0001) %MON dynstat_theta_mean           =   5.6914513123646E-01
(PID.TID 0000.0001) %MON dynstat_theta_sd             =   8.6860619197901E-01
(PID.TID 0000.0001) %MON dynstat_theta_del2           =   3.7162931581792E-06
(PID.TID 0000.0001) %MON dynstat_salt_max             =   3.4700000000000E+01
(PID.TID 0000.0001) %MON dynstat_salt_min             =   3.4000000000000E+01
(PID.TID 0000.0001) %MON dynstat_salt_mean            =   3.4499272268949E+01
(PID.TID 0000.0001) %MON dynstat_salt_sd              =   2.7637443104507E-01
(PID.TID 0000.0001) %MON dynstat_salt_del2            =   1.1832099571831E-06
(PID.TID 0000.0001) %MON advcfl_uvel_max              =   6.0178824735679E-05
(PID.TID 0000.0001) %MON advcfl_vvel_max              =   1.7175564240421E-04
(PID.TID 0000.0001) %MON advcfl_wvel_max              =   2.9288040912451E-03
(PID.TID 0000.0001) %MON advcfl_W_hf_max              =   2.9288040912451E-03
(PID.TID 0000.0001) %MON pe_b_mean                    =  -8.3328312261702E-01
(PID.TID 0000.0001) %MON ke_max                       =   1.0969377332923E-06
(PID.TID 0000.0001) %MON ke_mean                      =   2.1068869255663E-07
(PID.TID 0000.0001) %MON ke_vol                       =   4.2725720980084E+12
(PID.TID 0000.0001) // =======================================================
(PID.TID 0000.0001) // End MONITOR dynamic field statistics
(PID.TID 0000.0001) // =======================================================
(PID.TID 0000.0001) // =======================================================
(PID.TID 0000.0001) // Begin OBCS MONITOR field statistics
(PID.TID 0000.0001) // =======================================================
(PID.TID 0000.0001) %MON obc_N_vVel_max               =   5.0964005368223E-04
(PID.TID 0000.0001) %MON obc_N_vVel_min               =   5.0964005368222E-04
(PID.TID 0000.0001) %MON obc_N_vVel_mean              =   5.0964005368223E-04
(PID.TID 0000.0001) %MON obc_N_vVel_sd                =  -1.3076071123238E-20
(PID.TID 0000.0001) %MON obc_N_vVel_Int               =   3.3636243543027E+04
(PID.TID 0000.0001) // =======================================================
(PID.TID 0000.0001) // End OBCS MONITOR field statistics
(PID.TID 0000.0001) // =======================================================
 cg2d: Sum(rhs),rhsMax =   4.52779339500360E+00  2.99858721702481E+02
(PID.TID 0000.0001)      cg2d_init_res =   2.05350888031403E-05
(PID.TID 0000.0001)      cg2d_iters(min,last) =      -1      94
(PID.TID 0000.0001)      cg2d_last_res =   9.55332337133384E-12
(PID.TID 0000.0001) // =======================================================
(PID.TID 0000.0001) // Begin MONITOR dynamic field statistics
(PID.TID 0000.0001) // =======================================================
(PID.TID 0000.0001) %MON time_tsnumber                =                    48
(PID.TID 0000.0001) %MON time_secondsf                =   4.8000000000000E+03
(PID.TID 0000.0001) %MON dynstat_eta_max              =   5.7947760906691E+00
(PID.TID 0000.0001) %MON dynstat_eta_min              =  -1.4202241181693E+01
(PID.TID 0000.0001) %MON dynstat_eta_mean             =  -2.5142561843680E+00
(PID.TID 0000.0001) %MON dynstat_eta_sd               =   4.9540164607814E+00
(PID.TID 0000.0001) %MON dynstat_eta_del2             =   2.0730696336921E-01
(PID.TID 0000.0001) %MON dynstat_uvel_max             =   6.3861774366814E-04
(PID.TID 0000.0001) %MON dynstat_uvel_min             =  -6.2194795443915E-04
(PID.TID 0000.0001) %MON dynstat_uvel_mean            =  -5.6603994917866E-07
(PID.TID 0000.0001) %MON dynstat_uvel_sd              =   4.3200743858358E-05
(PID.TID 0000.0001) %MON dynstat_uvel_del2            =   1.1862660680803E-07
(PID.TID 0000.0001) %MON dynstat_vvel_max             =   1.7533700494852E-03
(PID.TID 0000.0001) %MON dynstat_vvel_min             =  -5.4252909300587E-04
(PID.TID 0000.0001) %MON dynstat_vvel_mean            =   6.1677494687905E-04
(PID.TID 0000.0001) %MON dynstat_vvel_sd              =   1.9664027242196E-04
(PID.TID 0000.0001) %MON dynstat_vvel_del2            =   5.1594432047847E-07
(PID.TID 0000.0001) %MON dynstat_wvel_max             =   5.4457372071223E-04
(PID.TID 0000.0001) %MON dynstat_wvel_min             =  -5.0946099412212E-04
(PID.TID 0000.0001) %MON dynstat_wvel_mean            =   8.4845698147042E-07
(PID.TID 0000.0001) %MON dynstat_wvel_sd              =   5.9998948416584E-05
(PID.TID 0000.0001) %MON dynstat_wvel_del2            =   2.9205369996273E-07
(PID.TID 0000.0001) %MON dynstat_theta_max            =   1.2000000000000E+00
(PID.TID 0000.0001) %MON dynstat_theta_min            =  -1.0000000000000E+00
(PID.TID 0000.0001) %MON dynstat_theta_mean           =   5.6914510826380E-01
(PID.TID 0000.0001) %MON dynstat_theta_sd             =   8.6860595663125E-01
(PID.TID 0000.0001) %MON dynstat_theta_del2           =   3.7070042019822E-06
(PID.TID 0000.0001) %MON dynstat_salt_max             =   3.4700000000000E+01
(PID.TID 0000.0001) %MON dynstat_salt_min             =   3.4000000000000E+01
(PID.TID 0000.0001) %MON dynstat_salt_mean            =   3.4499272240587E+01
(PID.TID 0000.0001) %MON dynstat_salt_sd              =   2.7637435050010E-01
(PID.TID 0000.0001) %MON dynstat_salt_del2            =   1.1802485804318E-06
(PID.TID 0000.0001) %MON advcfl_uvel_max              =   6.3861774366814E-05
(PID.TID 0000.0001) %MON advcfl_vvel_max              =   1.7533700494852E-04
(PID.TID 0000.0001) %MON advcfl_wvel_max              =   2.7228686035612E-03
(PID.TID 0000.0001) %MON advcfl_W_hf_max              =   2.7228686035612E-03
(PID.TID 0000.0001) %MON pe_b_mean                    =  -8.3343800552617E-01
(PID.TID 0000.0001) %MON ke_max                       =   1.1275411146841E-06
(PID.TID 0000.0001) %MON ke_mean                      =   2.0938532177775E-07
(PID.TID 0000.0001) %MON ke_vol                       =   4.2725687473974E+12
(PID.TID 0000.0001) // =======================================================
(PID.TID 0000.0001) // End MONITOR dynamic field statistics
(PID.TID 0000.0001) // =======================================================
(PID.TID 0000.0001) // =======================================================
(PID.TID 0000.0001) // Begin OBCS MONITOR field statistics
(PID.TID 0000.0001) // =======================================================
(PID.TID 0000.0001) %MON obc_N_vVel_max               =   5.2153762206725E-04
(PID.TID 0000.0001) %MON obc_N_vVel_min               =   5.2153762206724E-04
(PID.TID 0000.0001) %MON obc_N_vVel_mean              =   5.2153762206725E-04
(PID.TID 0000.0001) %MON obc_N_vVel_sd                =  -8.5762085909498E-21
(PID.TID 0000.0001) %MON obc_N_vVel_Int               =   3.4421483056438E+04
(PID.TID 0000.0001) // =======================================================
(PID.TID 0000.0001) // End OBCS MONITOR field statistics
(PID.TID 0000.0001) // =======================================================
 cg2d: Sum(rhs),rhsMax =   4.52883119837415E+00  2.99858571413119E+02
(PID.TID 0000.0001)      cg2d_init_res =   1.97307880199413E-05
(PID.TID 0000.0001)      cg2d_iters(min,last) =      -1      87
(PID.TID 0000.0001)      cg2d_last_res =   9.92523862240130E-12
(PID.TID 0000.0001) // =======================================================
(PID.TID 0000.0001) // Begin MONITOR dynamic field statistics
(PID.TID 0000.0001) // =======================================================
(PID.TID 0000.0001) %MON time_tsnumber                =                    49
(PID.TID 0000.0001) %MON time_secondsf                =   4.9000000000000E+03
(PID.TID 0000.0001) %MON dynstat_eta_max              =   5.7943649464489E+00
(PID.TID 0000.0001) %MON dynstat_eta_min              =  -1.4203557331749E+01
(PID.TID 0000.0001) %MON dynstat_eta_mean             =  -2.5148312098438E+00
(PID.TID 0000.0001) %MON dynstat_eta_sd               =   4.9541937102446E+00
(PID.TID 0000.0001) %MON dynstat_eta_del2             =   2.0730696384427E-01
(PID.TID 0000.0001) %MON dynstat_uvel_max             =   6.7376307955413E-04
(PID.TID 0000.0001) %MON dynstat_uvel_min             =  -6.6314131943734E-04
(PID.TID 0000.0001) %MON dynstat_uvel_mean            =   4.8707838311289E-07
(PID.TID 0000.0001) %MON dynstat_uvel_sd              =   4.3954481769676E-05
(PID.TID 0000.0001) %MON dynstat_uvel_del2            =   1.2667173846647E-07
(PID.TID 0000.0001) %MON dynstat_vvel_max             =   1.7653654516376E-03
(PID.TID 0000.0001) %MON dynstat_vvel_min             =  -5.2284163825832E-04
(PID.TID 0000.0001) %MON dynstat_vvel_mean            =   6.0039067326147E-04
(PID.TID 0000.0001) %MON dynstat_vvel_sd              =   1.8969961054609E-04
(PID.TID 0000.0001) %MON dynstat_vvel_del2            =   5.1211771391014E-07
(PID.TID 0000.0001) %MON dynstat_wvel_max             =   5.0029177562913E-04
(PID.TID 0000.0001) %MON dynstat_wvel_min             =  -5.3764125022672E-04
(PID.TID 0000.0001) %MON dynstat_wvel_mean            =   6.9611234834807E-07
(PID.TID 0000.0001) %MON dynstat_wvel_sd              =   5.7681792798388E-05
(PID.TID 0000.0001) %MON dynstat_wvel_del2            =   2.7553675923834E-07
(PID.TID 0000.0001) %MON dynstat_theta_max            =   1.2000000000000E+00
(PID.TID 0000.0001) %MON dynstat_theta_min            =  -1.0000000000000E+00
(PID.TID 0000.0001) %MON dynstat_theta_mean           =   5.6914508070469E-01
(PID.TID 0000.0001) %MON dynstat_theta_sd             =   8.6860572666050E-01
(PID.TID 0000.0001) %MON dynstat_theta_del2           =   3.6948756482698E-06
(PID.TID 0000.0001) %MON dynstat_salt_max             =   3.4700000000000E+01
(PID.TID 0000.0001) %MON dynstat_salt_min             =   3.4000000000000E+01
(PID.TID 0000.0001) %MON dynstat_salt_mean            =   3.4499272210766E+01
(PID.TID 0000.0001) %MON dynstat_salt_sd              =   2.7637427167551E-01
(PID.TID 0000.0001) %MON dynstat_salt_del2            =   1.1763802906710E-06
(PID.TID 0000.0001) %MON advcfl_uvel_max              =   6.7376307955414E-05
(PID.TID 0000.0001) %MON advcfl_vvel_max              =   1.7653654516376E-04
(PID.TID 0000.0001) %MON advcfl_wvel_max              =   2.6882062511336E-03
(PID.TID 0000.0001) %MON advcfl_W_hf_max              =   2.6882062511336E-03
(PID.TID 0000.0001) %MON pe_b_mean                    =  -8.3358793829291E-01
(PID.TID 0000.0001) %MON ke_max                       =   1.1224730832500E-06
(PID.TID 0000.0001) %MON ke_mean                      =   1.9811476883227E-07
(PID.TID 0000.0001) %MON ke_vol                       =   4.2725653182649E+12
(PID.TID 0000.0001) // =======================================================
(PID.TID 0000.0001) // End MONITOR dynamic field statistics
(PID.TID 0000.0001) // =======================================================
(PID.TID 0000.0001) // =======================================================
(PID.TID 0000.0001) // Begin OBCS MONITOR field statistics
(PID.TID 0000.0001) // =======================================================
(PID.TID 0000.0001) %MON obc_N_vVel_max               =   5.1949504893800E-04
(PID.TID 0000.0001) %MON obc_N_vVel_min               =   5.1949504893799E-04
(PID.TID 0000.0001) %MON obc_N_vVel_mean              =   5.1949504893800E-04
(PID.TID 0000.0001) %MON obc_N_vVel_sd                =  -1.0164395367052E-20
(PID.TID 0000.0001) %MON obc_N_vVel_Int               =   3.4286673229908E+04
(PID.TID 0000.0001) // =======================================================
(PID.TID 0000.0001) // End OBCS MONITOR field statistics
(PID.TID 0000.0001) // =======================================================
 cg2d: Sum(rhs),rhsMax =   4.52983890377623E+00  2.99858421996881E+02
(PID.TID 0000.0001)      cg2d_init_res =   1.86396918887761E-05
(PID.TID 0000.0001)      cg2d_iters(min,last) =      -1      94
(PID.TID 0000.0001)      cg2d_last_res =   9.12286373535460E-12
(PID.TID 0000.0001) // =======================================================
(PID.TID 0000.0001) // Begin MONITOR dynamic field statistics
(PID.TID 0000.0001) // =======================================================
(PID.TID 0000.0001) %MON time_tsnumber                =                    50
(PID.TID 0000.0001) %MON time_secondsf                =   5.0000000000000E+03
(PID.TID 0000.0001) %MON dynstat_eta_max              =   5.7939525093815E+00
(PID.TID 0000.0001) %MON dynstat_eta_min              =  -1.4204774297724E+01
(PID.TID 0000.0001) %MON dynstat_eta_mean             =  -2.5153895288637E+00
(PID.TID 0000.0001) %MON dynstat_eta_sd               =   4.9543544447404E+00
(PID.TID 0000.0001) %MON dynstat_eta_del2             =   2.0730696443932E-01
(PID.TID 0000.0001) %MON dynstat_uvel_max             =   7.0726393727583E-04
(PID.TID 0000.0001) %MON dynstat_uvel_min             =  -7.0366138168065E-04
(PID.TID 0000.0001) %MON dynstat_uvel_mean            =   1.4777394429068E-06
(PID.TID 0000.0001) %MON dynstat_uvel_sd              =   4.4579298881689E-05
(PID.TID 0000.0001) %MON dynstat_uvel_del2            =   1.3456894384210E-07
(PID.TID 0000.0001) %MON dynstat_vvel_max             =   1.7555421676896E-03
(PID.TID 0000.0001) %MON dynstat_vvel_min             =  -5.0208183222221E-04
(PID.TID 0000.0001) %MON dynstat_vvel_mean            =   5.6964373017484E-04
(PID.TID 0000.0001) %MON dynstat_vvel_sd              =   1.8112121076211E-04
(PID.TID 0000.0001) %MON dynstat_vvel_del2            =   5.1332415624056E-07
(PID.TID 0000.0001) %MON dynstat_wvel_max             =   4.4634426811630E-04
(PID.TID 0000.0001) %MON dynstat_wvel_min             =  -5.5653578205890E-04
(PID.TID 0000.0001) %MON dynstat_wvel_mean            =   5.3360025634168E-07
(PID.TID 0000.0001) %MON dynstat_wvel_sd              =   5.5718221036177E-05
(PID.TID 0000.0001) %MON dynstat_wvel_del2            =   2.6532063176422E-07
(PID.TID 0000.0001) %MON dynstat_theta_max            =   1.2000000000000E+00
(PID.TID 0000.0001) %MON dynstat_theta_min            =  -1.0000000000000E+00
(PID.TID 0000.0001) %MON dynstat_theta_mean           =   5.6914504291716E-01
(PID.TID 0000.0001) %MON dynstat_theta_sd             =   8.6860550398345E-01
(PID.TID 0000.0001) %MON dynstat_theta_del2           =   3.6792038864165E-06
(PID.TID 0000.0001) %MON dynstat_salt_max             =   3.4700000000000E+01
(PID.TID 0000.0001) %MON dynstat_salt_min             =   3.4000000000000E+01
(PID.TID 0000.0001) %MON dynstat_salt_mean            =   3.4499272177696E+01
(PID.TID 0000.0001) %MON dynstat_salt_sd              =   2.7637419517496E-01
(PID.TID 0000.0001) %MON dynstat_salt_del2            =   1.1713804785578E-06
(PID.TID 0000.0001) %MON advcfl_uvel_max              =   7.0726393727583E-05
(PID.TID 0000.0001) %MON advcfl_vvel_max              =   1.7555421676896E-04
(PID.TID 0000.0001) %MON advcfl_wvel_max              =   2.7826789102945E-03
(PID.TID 0000.0001) %MON advcfl_W_hf_max              =   2.7826789102945E-03
(PID.TID 0000.0001) %MON pe_b_mean                    =  -8.3372938668462E-01
(PID.TID 0000.0001) %MON ke_max                       =   1.0853980340332E-06
(PID.TID 0000.0001) %MON ke_mean                      =   1.7862599827715E-07
(PID.TID 0000.0001) %MON ke_vol                       =   4.2725619026135E+12
(PID.TID 0000.0001) // =======================================================
(PID.TID 0000.0001) // End MONITOR dynamic field statistics
(PID.TID 0000.0001) // =======================================================
(PID.TID 0000.0001) // =======================================================
(PID.TID 0000.0001) // Begin OBCS MONITOR field statistics
(PID.TID 0000.0001) // =======================================================
(PID.TID 0000.0001) %MON obc_N_vVel_max               =   5.0445892859682E-04
(PID.TID 0000.0001) %MON obc_N_vVel_min               =   5.0445892859680E-04
(PID.TID 0000.0001) %MON obc_N_vVel_mean              =   5.0445892859680E-04
(PID.TID 0000.0001) %MON obc_N_vVel_sd                =   1.5706633817843E-10
(PID.TID 0000.0001) %MON obc_N_vVel_Int               =   3.3294289287389E+04
(PID.TID 0000.0001) // =======================================================
(PID.TID 0000.0001) // End OBCS MONITOR field statistics
(PID.TID 0000.0001) // =======================================================
 cg2d: Sum(rhs),rhsMax =   4.53079282036169E+00  2.99858278457691E+02
(PID.TID 0000.0001)      cg2d_init_res =   1.73602415545477E-05
(PID.TID 0000.0001)      cg2d_iters(min,last) =      -1      94
(PID.TID 0000.0001)      cg2d_last_res =   8.72555277917971E-12
(PID.TID 0000.0001) // =======================================================
(PID.TID 0000.0001) // Begin MONITOR dynamic field statistics
(PID.TID 0000.0001) // =======================================================
(PID.TID 0000.0001) %MON time_tsnumber                =                    51
(PID.TID 0000.0001) %MON time_secondsf                =   5.1000000000000E+03
(PID.TID 0000.0001) %MON dynstat_eta_max              =   5.7935478365292E+00
(PID.TID 0000.0001) %MON dynstat_eta_min              =  -1.4205865039311E+01
(PID.TID 0000.0001) %MON dynstat_eta_mean             =  -2.5159180280780E+00
(PID.TID 0000.0001) %MON dynstat_eta_sd               =   4.9544955955823E+00
(PID.TID 0000.0001) %MON dynstat_eta_del2             =   2.0730696515861E-01
(PID.TID 0000.0001) %MON dynstat_uvel_max             =   7.3917398956880E-04
(PID.TID 0000.0001) %MON dynstat_uvel_min             =  -7.4346643291889E-04
(PID.TID 0000.0001) %MON dynstat_uvel_mean            =   2.3657607715311E-06
(PID.TID 0000.0001) %MON dynstat_uvel_sd              =   4.5123605846729E-05
(PID.TID 0000.0001) %MON dynstat_uvel_del2            =   1.4230368314275E-07
(PID.TID 0000.0001) %MON dynstat_vvel_max             =   1.7262635437998E-03
(PID.TID 0000.0001) %MON dynstat_vvel_min             =  -4.7907029355725E-04
(PID.TID 0000.0001) %MON dynstat_vvel_mean            =   5.2623873186408E-04
(PID.TID 0000.0001) %MON dynstat_vvel_sd              =   1.7166278109294E-04
(PID.TID 0000.0001) %MON dynstat_vvel_del2            =   5.1947146432244E-07
(PID.TID 0000.0001) %MON dynstat_wvel_max             =   3.8333046855256E-04
(PID.TID 0000.0001) %MON dynstat_wvel_min             =  -5.6714139765556E-04
(PID.TID 0000.0001) %MON dynstat_wvel_mean            =   3.6600083882244E-07
(PID.TID 0000.0001) %MON dynstat_wvel_sd              =   5.4330018015872E-05
(PID.TID 0000.0001) %MON dynstat_wvel_del2            =   2.6276299761317E-07
(PID.TID 0000.0001) %MON dynstat_theta_max            =   1.2000000000000E+00
(PID.TID 0000.0001) %MON dynstat_theta_min            =  -1.0000000000000E+00
(PID.TID 0000.0001) %MON dynstat_theta_mean           =   5.6914498994475E-01
(PID.TID 0000.0001) %MON dynstat_theta_sd             =   8.6860528997620E-01
(PID.TID 0000.0001) %MON dynstat_theta_del2           =   3.6597284970963E-06
(PID.TID 0000.0001) %MON dynstat_salt_max             =   3.4700000000000E+01
(PID.TID 0000.0001) %MON dynstat_salt_min             =   3.4000000000000E+01
(PID.TID 0000.0001) %MON dynstat_salt_mean            =   3.4499272139801E+01
(PID.TID 0000.0001) %MON dynstat_salt_sd              =   2.7637412143091E-01
(PID.TID 0000.0001) %MON dynstat_salt_del2            =   1.1651660498014E-06
(PID.TID 0000.0001) %MON advcfl_uvel_max              =   7.4346643291889E-05
(PID.TID 0000.0001) %MON advcfl_vvel_max              =   1.7262635437998E-04
(PID.TID 0000.0001) %MON advcfl_wvel_max              =   2.8357069882778E-03
(PID.TID 0000.0001) %MON advcfl_W_hf_max              =   2.8357069882778E-03
(PID.TID 0000.0001) %MON pe_b_mean                    =  -8.3385926239362E-01
(PID.TID 0000.0001) %MON ke_max                       =   1.0277682720370E-06
(PID.TID 0000.0001) %MON ke_mean                      =   1.5330384772743E-07
(PID.TID 0000.0001) %MON ke_vol                       =   4.2725585861985E+12
(PID.TID 0000.0001) // =======================================================
(PID.TID 0000.0001) // End MONITOR dynamic field statistics
(PID.TID 0000.0001) // =======================================================
(PID.TID 0000.0001) // =======================================================
(PID.TID 0000.0001) // Begin OBCS MONITOR field statistics
(PID.TID 0000.0001) // =======================================================
(PID.TID 0000.0001) %MON obc_N_vVel_max               =   4.7762058051078E-04
(PID.TID 0000.0001) %MON obc_N_vVel_min               =   4.7762058051077E-04
(PID.TID 0000.0001) %MON obc_N_vVel_mean              =   4.7762058051077E-04
(PID.TID 0000.0001) %MON obc_N_vVel_sd                =   1.1607376024435E-10
(PID.TID 0000.0001) %MON obc_N_vVel_Int               =   3.1522958313711E+04
(PID.TID 0000.0001) // =======================================================
(PID.TID 0000.0001) // End OBCS MONITOR field statistics
(PID.TID 0000.0001) // =======================================================
 cg2d: Sum(rhs),rhsMax =   4.53167206600021E+00  2.99858145468941E+02
(PID.TID 0000.0001)      cg2d_init_res =   1.60087366805987E-05
(PID.TID 0000.0001)      cg2d_iters(min,last) =      -1      94
(PID.TID 0000.0001)      cg2d_last_res =   8.02307102267892E-12
(PID.TID 0000.0001) // =======================================================
(PID.TID 0000.0001) // Begin MONITOR dynamic field statistics
(PID.TID 0000.0001) // =======================================================
(PID.TID 0000.0001) %MON time_tsnumber                =                    52
(PID.TID 0000.0001) %MON time_secondsf                =   5.2000000000000E+03
(PID.TID 0000.0001) %MON dynstat_eta_max              =   5.7931595602602E+00
(PID.TID 0000.0001) %MON dynstat_eta_min              =  -1.4206808445634E+01
(PID.TID 0000.0001) %MON dynstat_eta_mean             =  -2.5164051510819E+00
(PID.TID 0000.0001) %MON dynstat_eta_sd               =   4.9546147665806E+00
(PID.TID 0000.0001) %MON dynstat_eta_del2             =   2.0730696600363E-01
(PID.TID 0000.0001) %MON dynstat_uvel_max             =   7.6955938127732E-04
(PID.TID 0000.0001) %MON dynstat_uvel_min             =  -7.8252037811044E-04
(PID.TID 0000.0001) %MON dynstat_uvel_mean            =   3.1175619723586E-06
(PID.TID 0000.0001) %MON dynstat_uvel_sd              =   4.5630559156754E-05
(PID.TID 0000.0001) %MON dynstat_uvel_del2            =   1.4986599908497E-07
(PID.TID 0000.0001) %MON dynstat_vvel_max             =   1.6801958202528E-03
(PID.TID 0000.0001) %MON dynstat_vvel_min             =  -4.7500114770831E-04
(PID.TID 0000.0001) %MON dynstat_vvel_mean            =   4.7210086651210E-04
(PID.TID 0000.0001) %MON dynstat_vvel_sd              =   1.6215284623433E-04
(PID.TID 0000.0001) %MON dynstat_vvel_del2            =   5.2965716811073E-07
(PID.TID 0000.0001) %MON dynstat_wvel_max             =   3.1327244597226E-04
(PID.TID 0000.0001) %MON dynstat_wvel_min             =  -5.8091992030950E-04
(PID.TID 0000.0001) %MON dynstat_wvel_mean            =   1.9842053676115E-07
(PID.TID 0000.0001) %MON dynstat_wvel_sd              =   5.3656754227700E-05
(PID.TID 0000.0001) %MON dynstat_wvel_del2            =   2.6772313868859E-07
(PID.TID 0000.0001) %MON dynstat_theta_max            =   1.2000000000000E+00
(PID.TID 0000.0001) %MON dynstat_theta_min            =  -1.0000000000000E+00
(PID.TID 0000.0001) %MON dynstat_theta_mean           =   5.6914491755315E-01
(PID.TID 0000.0001) %MON dynstat_theta_sd             =   8.6860508616783E-01
(PID.TID 0000.0001) %MON dynstat_theta_del2           =   3.6366540564679E-06
(PID.TID 0000.0001) %MON dynstat_salt_max             =   3.4700000000000E+01
(PID.TID 0000.0001) %MON dynstat_salt_min             =   3.4000000000000E+01
(PID.TID 0000.0001) %MON dynstat_salt_mean            =   3.4499272095734E+01
(PID.TID 0000.0001) %MON dynstat_salt_sd              =   2.7637405092678E-01
(PID.TID 0000.0001) %MON dynstat_salt_del2            =   1.1578027468845E-06
(PID.TID 0000.0001) %MON advcfl_uvel_max              =   7.8252037811044E-05
(PID.TID 0000.0001) %MON advcfl_vvel_max              =   1.6801958202528E-04
(PID.TID 0000.0001) %MON advcfl_wvel_max              =   2.9045996015475E-03
(PID.TID 0000.0001) %MON advcfl_W_hf_max              =   2.9045996015475E-03
(PID.TID 0000.0001) %MON pe_b_mean                    =  -8.3397497602169E-01
(PID.TID 0000.0001) %MON ke_max                       =   9.6610548635466E-07
(PID.TID 0000.0001) %MON ke_mean                      =   1.2485168313616E-07
(PID.TID 0000.0001) %MON ke_vol                       =   4.2725554469132E+12
(PID.TID 0000.0001) // =======================================================
(PID.TID 0000.0001) // End MONITOR dynamic field statistics
(PID.TID 0000.0001) // =======================================================
(PID.TID 0000.0001) // =======================================================
(PID.TID 0000.0001) // Begin OBCS MONITOR field statistics
(PID.TID 0000.0001) // =======================================================
(PID.TID 0000.0001) %MON obc_N_vVel_max               =   4.4038149653672E-04
(PID.TID 0000.0001) %MON obc_N_vVel_min               =   4.4038149653671E-04
(PID.TID 0000.0001) %MON obc_N_vVel_mean              =   4.4038149653671E-04
(PID.TID 0000.0001) %MON obc_N_vVel_sd                =   1.1058498169274E-10
(PID.TID 0000.0001) %MON obc_N_vVel_Int               =   2.9065178771423E+04
(PID.TID 0000.0001) // =======================================================
(PID.TID 0000.0001) // End OBCS MONITOR field statistics
(PID.TID 0000.0001) // =======================================================
 cg2d: Sum(rhs),rhsMax =   4.53245891742095E+00  2.99858027304317E+02
(PID.TID 0000.0001)      cg2d_init_res =   1.47176869834622E-05
(PID.TID 0000.0001)      cg2d_iters(min,last) =      -1      93
(PID.TID 0000.0001)      cg2d_last_res =   9.42309592313245E-12
(PID.TID 0000.0001) // =======================================================
(PID.TID 0000.0001) // Begin MONITOR dynamic field statistics
(PID.TID 0000.0001) // =======================================================
(PID.TID 0000.0001) %MON time_tsnumber                =                    53
(PID.TID 0000.0001) %MON time_secondsf                =   5.3000000000000E+03
(PID.TID 0000.0001) %MON dynstat_eta_max              =   5.7927957298436E+00
(PID.TID 0000.0001) %MON dynstat_eta_min              =  -1.4207589476807E+01
(PID.TID 0000.0001) %MON dynstat_eta_mean             =  -2.5168410922513E+00
(PID.TID 0000.0001) %MON dynstat_eta_sd               =   4.9547102666749E+00
(PID.TID 0000.0001) %MON dynstat_eta_del2             =   2.0730696697533E-01
(PID.TID 0000.0001) %MON dynstat_uvel_max             =   7.9849681301170E-04
(PID.TID 0000.0001) %MON dynstat_uvel_min             =  -8.2079250406686E-04
(PID.TID 0000.0001) %MON dynstat_uvel_mean            =   3.7081715462428E-06
(PID.TID 0000.0001) %MON dynstat_uvel_sd              =   4.6132136330292E-05
(PID.TID 0000.0001) %MON dynstat_uvel_del2            =   1.5724992277682E-07
(PID.TID 0000.0001) %MON dynstat_vvel_max             =   1.6202412121658E-03
(PID.TID 0000.0001) %MON dynstat_vvel_min             =  -5.6936631038352E-04
(PID.TID 0000.0001) %MON dynstat_vvel_mean            =   4.0931664390386E-04
(PID.TID 0000.0001) %MON dynstat_vvel_sd              =   1.5342951432483E-04
(PID.TID 0000.0001) %MON dynstat_vvel_del2            =   5.4240501286289E-07
(PID.TID 0000.0001) %MON dynstat_wvel_max             =   3.2050742206361E-04
(PID.TID 0000.0001) %MON dynstat_wvel_min             =  -5.8411359329132E-04
(PID.TID 0000.0001) %MON dynstat_wvel_mean            =   3.5755524096119E-08
(PID.TID 0000.0001) %MON dynstat_wvel_sd              =   5.3725477850267E-05
(PID.TID 0000.0001) %MON dynstat_wvel_del2            =   2.7862205276248E-07
(PID.TID 0000.0001) %MON dynstat_theta_max            =   1.2000000000000E+00
(PID.TID 0000.0001) %MON dynstat_theta_min            =  -1.0000000000000E+00
(PID.TID 0000.0001) %MON dynstat_theta_mean           =   5.6914482227331E-01
(PID.TID 0000.0001) %MON dynstat_theta_sd             =   8.6860489379330E-01
(PID.TID 0000.0001) %MON dynstat_theta_del2           =   3.6105981680723E-06
(PID.TID 0000.0001) %MON dynstat_salt_max             =   3.4700000000000E+01
(PID.TID 0000.0001) %MON dynstat_salt_min             =   3.4000000000000E+01
(PID.TID 0000.0001) %MON dynstat_salt_mean            =   3.4499272044389E+01
(PID.TID 0000.0001) %MON dynstat_salt_sd              =   2.7637398405301E-01
(PID.TID 0000.0001) %MON dynstat_salt_del2            =   1.1494865418424E-06
(PID.TID 0000.0001) %MON advcfl_uvel_max              =   8.2079250406686E-05
(PID.TID 0000.0001) %MON advcfl_vvel_max              =   1.6202412121658E-04
(PID.TID 0000.0001) %MON advcfl_wvel_max              =   2.9205679664566E-03
(PID.TID 0000.0001) %MON advcfl_W_hf_max              =   2.9205679664566E-03
(PID.TID 0000.0001) %MON pe_b_mean                    =  -8.3407447411999E-01
(PID.TID 0000.0001) %MON ke_max                       =   8.9174546386720E-07
(PID.TID 0000.0001) %MON ke_mean                      =   9.5981236712955E-08
(PID.TID 0000.0001) %MON ke_vol                       =   4.2725525534026E+12
(PID.TID 0000.0001) // =======================================================
(PID.TID 0000.0001) // End MONITOR dynamic field statistics
(PID.TID 0000.0001) // =======================================================
(PID.TID 0000.0001) // =======================================================
(PID.TID 0000.0001) // Begin OBCS MONITOR field statistics
(PID.TID 0000.0001) // =======================================================
(PID.TID 0000.0001) %MON obc_N_vVel_max               =   3.9431751653424E-04
(PID.TID 0000.0001) %MON obc_N_vVel_min               =   3.9431751653422E-04
(PID.TID 0000.0001) %MON obc_N_vVel_mean              =   3.9431751653422E-04
(PID.TID 0000.0001) %MON obc_N_vVel_sd                =   9.0292259454079E-11
(PID.TID 0000.0001) %MON obc_N_vVel_Int               =   2.6024956091259E+04
(PID.TID 0000.0001) // =======================================================
(PID.TID 0000.0001) // End OBCS MONITOR field statistics
(PID.TID 0000.0001) // =======================================================
 cg2d: Sum(rhs),rhsMax =   4.53313906820059E+00  2.99857928722790E+02
(PID.TID 0000.0001)      cg2d_init_res =   1.36285729955153E-05
(PID.TID 0000.0001)      cg2d_iters(min,last) =      -1      93
(PID.TID 0000.0001)      cg2d_last_res =   8.36993558549171E-12
(PID.TID 0000.0001) // =======================================================
(PID.TID 0000.0001) // Begin MONITOR dynamic field statistics
(PID.TID 0000.0001) // =======================================================
(PID.TID 0000.0001) %MON time_tsnumber                =                    54
(PID.TID 0000.0001) %MON time_secondsf                =   5.4000000000000E+03
(PID.TID 0000.0001) %MON dynstat_eta_max              =   5.7924636076019E+00
(PID.TID 0000.0001) %MON dynstat_eta_min              =  -1.4208199013474E+01
(PID.TID 0000.0001) %MON dynstat_eta_mean             =  -2.5172179474129E+00
(PID.TID 0000.0001) %MON dynstat_eta_sd               =   4.9547811247992E+00
(PID.TID 0000.0001) %MON dynstat_eta_del2             =   2.0730696807189E-01
(PID.TID 0000.0001) %MON dynstat_uvel_max             =   8.2607111141719E-04
(PID.TID 0000.0001) %MON dynstat_uvel_min             =  -8.5825905263803E-04
(PID.TID 0000.0001) %MON dynstat_uvel_mean            =   4.1224833137157E-06
(PID.TID 0000.0001) %MON dynstat_uvel_sd              =   4.6647873241069E-05
(PID.TID 0000.0001) %MON dynstat_uvel_del2            =   1.6445291930311E-07
(PID.TID 0000.0001) %MON dynstat_vvel_max             =   1.5494651358594E-03
(PID.TID 0000.0001) %MON dynstat_vvel_min             =  -6.6352313223773E-04
(PID.TID 0000.0001) %MON dynstat_vvel_mean            =   3.4007319701941E-04
(PID.TID 0000.0001) %MON dynstat_vvel_sd              =   1.4625118654200E-04
(PID.TID 0000.0001) %MON dynstat_vvel_del2            =   5.5597908113669E-07
(PID.TID 0000.0001) %MON dynstat_wvel_max             =   3.9164285920319E-04
(PID.TID 0000.0001) %MON dynstat_wvel_min             =  -5.7593707295730E-04
(PID.TID 0000.0001) %MON dynstat_wvel_mean            =  -1.1752268968519E-07
(PID.TID 0000.0001) %MON dynstat_wvel_sd              =   5.4447319905950E-05
(PID.TID 0000.0001) %MON dynstat_wvel_del2            =   2.9306632868400E-07
(PID.TID 0000.0001) %MON dynstat_theta_max            =   1.2000000000000E+00
(PID.TID 0000.0001) %MON dynstat_theta_min            =  -1.0000000000000E+00
(PID.TID 0000.0001) %MON dynstat_theta_mean           =   5.6914470143795E-01
(PID.TID 0000.0001) %MON dynstat_theta_sd             =   8.6860471371536E-01
(PID.TID 0000.0001) %MON dynstat_theta_del2           =   3.5825023768726E-06
(PID.TID 0000.0001) %MON dynstat_salt_max             =   3.4700000000000E+01
(PID.TID 0000.0001) %MON dynstat_salt_min             =   3.4000000000000E+01
(PID.TID 0000.0001) %MON dynstat_salt_mean            =   3.4499271984916E+01
(PID.TID 0000.0001) %MON dynstat_salt_sd              =   2.7637392108201E-01
(PID.TID 0000.0001) %MON dynstat_salt_del2            =   1.1405160691463E-06
(PID.TID 0000.0001) %MON advcfl_uvel_max              =   8.5825905263803E-05
(PID.TID 0000.0001) %MON advcfl_vvel_max              =   1.5494651358594E-04
(PID.TID 0000.0001) %MON advcfl_wvel_max              =   2.8796853647865E-03
(PID.TID 0000.0001) %MON advcfl_W_hf_max              =   2.8796853647865E-03
(PID.TID 0000.0001) %MON pe_b_mean                    =  -8.3415626021901E-01
(PID.TID 0000.0001) %MON ke_max                       =   8.1020279190851E-07
(PID.TID 0000.0001) %MON ke_mean                      =   6.9138921072158E-08
(PID.TID 0000.0001) %MON ke_vol                       =   4.2725499639120E+12
(PID.TID 0000.0001) // =======================================================
(PID.TID 0000.0001) // End MONITOR dynamic field statistics
(PID.TID 0000.0001) // =======================================================
(PID.TID 0000.0001) // =======================================================
(PID.TID 0000.0001) // Begin OBCS MONITOR field statistics
(PID.TID 0000.0001) // =======================================================
(PID.TID 0000.0001) %MON obc_N_vVel_max               =   3.4113991232374E-04
(PID.TID 0000.0001) %MON obc_N_vVel_min               =   3.4113991232373E-04
(PID.TID 0000.0001) %MON obc_N_vVel_mean              =   3.4113991232373E-04
(PID.TID 0000.0001) %MON obc_N_vVel_sd                =   4.0836210829445E-11
(PID.TID 0000.0001) %MON obc_N_vVel_Int               =   2.2515234213366E+04
(PID.TID 0000.0001) // =======================================================
(PID.TID 0000.0001) // End OBCS MONITOR field statistics
(PID.TID 0000.0001) // =======================================================
 cg2d: Sum(rhs),rhsMax =   4.53370184001755E+00  2.99857853248818E+02
(PID.TID 0000.0001)      cg2d_init_res =   1.28713631086627E-05
(PID.TID 0000.0001)      cg2d_iters(min,last) =      -1      92
(PID.TID 0000.0001)      cg2d_last_res =   9.67544921039016E-12
(PID.TID 0000.0001) // =======================================================
(PID.TID 0000.0001) // Begin MONITOR dynamic field statistics
(PID.TID 0000.0001) // =======================================================
(PID.TID 0000.0001) %MON time_tsnumber                =                    55
(PID.TID 0000.0001) %MON time_secondsf                =   5.5000000000000E+03
(PID.TID 0000.0001) %MON dynstat_eta_max              =   5.7921694365808E+00
(PID.TID 0000.0001) %MON dynstat_eta_min              =  -1.4208633482047E+01
(PID.TID 0000.0001) %MON dynstat_eta_mean             =  -2.5175298166998E+00
(PID.TID 0000.0001) %MON dynstat_eta_sd               =   4.9548270843612E+00
(PID.TID 0000.0001) %MON dynstat_eta_del2             =   2.0730696928827E-01
(PID.TID 0000.0001) %MON dynstat_uvel_max             =   8.5237280574724E-04
(PID.TID 0000.0001) %MON dynstat_uvel_min             =  -8.9490097787426E-04
(PID.TID 0000.0001) %MON dynstat_uvel_mean            =   4.3557084473938E-06
(PID.TID 0000.0001) %MON dynstat_uvel_sd              =   4.7186635962481E-05
(PID.TID 0000.0001) %MON dynstat_uvel_del2            =   1.7147534284676E-07
(PID.TID 0000.0001) %MON dynstat_vvel_max             =   1.4710157390407E-03
(PID.TID 0000.0001) %MON dynstat_vvel_min             =  -7.5457826207116E-04
(PID.TID 0000.0001) %MON dynstat_vvel_mean            =   2.6659722941425E-04
(PID.TID 0000.0001) %MON dynstat_vvel_sd              =   1.4118172839189E-04
(PID.TID 0000.0001) %MON dynstat_vvel_del2            =   5.6867419225677E-07
(PID.TID 0000.0001) %MON dynstat_wvel_max             =   4.5372202948935E-04
(PID.TID 0000.0001) %MON dynstat_wvel_min             =  -5.5633273453530E-04
(PID.TID 0000.0001) %MON dynstat_wvel_mean            =  -2.5753971070860E-07
(PID.TID 0000.0001) %MON dynstat_wvel_sd              =   5.5644366241482E-05
(PID.TID 0000.0001) %MON dynstat_wvel_del2            =   3.0855805548482E-07
(PID.TID 0000.0001) %MON dynstat_theta_max            =   1.2000000000000E+00
(PID.TID 0000.0001) %MON dynstat_theta_min            =  -1.0000000000000E+00
(PID.TID 0000.0001) %MON dynstat_theta_mean           =   5.6914455318781E-01
(PID.TID 0000.0001) %MON dynstat_theta_sd             =   8.6860454633943E-01
(PID.TID 0000.0001) %MON dynstat_theta_del2           =   3.5535134918628E-06
(PID.TID 0000.0001) %MON dynstat_salt_max             =   3.4700000000000E+01
(PID.TID 0000.0001) %MON dynstat_salt_min             =   3.4000000000000E+01
(PID.TID 0000.0001) %MON dynstat_salt_mean            =   3.4499271916722E+01
(PID.TID 0000.0001) %MON dynstat_salt_sd              =   2.7637386214128E-01
(PID.TID 0000.0001) %MON dynstat_salt_del2            =   1.1312576143799E-06
(PID.TID 0000.0001) %MON advcfl_uvel_max              =   8.9490097787426E-05
(PID.TID 0000.0001) %MON advcfl_vvel_max              =   1.4710157390407E-04
(PID.TID 0000.0001) %MON advcfl_wvel_max              =   2.7816636726765E-03
(PID.TID 0000.0001) %MON advcfl_W_hf_max              =   2.7816636726765E-03
(PID.TID 0000.0001) %MON pe_b_mean                    =  -8.3421940008869E-01
(PID.TID 0000.0001) %MON ke_max                       =   7.2658569132481E-07
(PID.TID 0000.0001) %MON ke_mean                      =   4.6291175187843E-08
(PID.TID 0000.0001) %MON ke_vol                       =   4.2725477253924E+12
(PID.TID 0000.0001) // =======================================================
(PID.TID 0000.0001) // End MONITOR dynamic field statistics
(PID.TID 0000.0001) // =======================================================
(PID.TID 0000.0001) // =======================================================
(PID.TID 0000.0001) // Begin OBCS MONITOR field statistics
(PID.TID 0000.0001) // =======================================================
(PID.TID 0000.0001) %MON obc_N_vVel_max               =   2.8265249058076E-04
(PID.TID 0000.0001) %MON obc_N_vVel_min               =   2.8265249058075E-04
(PID.TID 0000.0001) %MON obc_N_vVel_mean              =   2.8265249058076E-04
(PID.TID 0000.0001) %MON obc_N_vVel_sd                =  -5.3468954795428E-21
(PID.TID 0000.0001) %MON obc_N_vVel_Int               =   1.8655064378330E+04
(PID.TID 0000.0001) // =======================================================
(PID.TID 0000.0001) // End OBCS MONITOR field statistics
(PID.TID 0000.0001) // =======================================================
 cg2d: Sum(rhs),rhsMax =   4.53414026790206E+00  2.99857803574797E+02
(PID.TID 0000.0001)      cg2d_init_res =   1.25303210653618E-05
(PID.TID 0000.0001)      cg2d_iters(min,last) =      -1      91
(PID.TID 0000.0001)      cg2d_last_res =   9.36427618081023E-12
(PID.TID 0000.0001) // =======================================================
(PID.TID 0000.0001) // Begin MONITOR dynamic field statistics
(PID.TID 0000.0001) // =======================================================
(PID.TID 0000.0001) %MON time_tsnumber                =                    56
(PID.TID 0000.0001) %MON time_secondsf                =   5.6000000000000E+03
(PID.TID 0000.0001) %MON dynstat_eta_max              =   5.7919182207902E+00
(PID.TID 0000.0001) %MON dynstat_eta_min              =  -1.4208894328674E+01
(PID.TID 0000.0001) %MON dynstat_eta_mean             =  -2.5177728552466E+00
(PID.TID 0000.0001) %MON dynstat_eta_sd               =   4.9548485763841E+00
(PID.TID 0000.0001) %MON dynstat_eta_del2             =   2.0730697061128E-01
(PID.TID 0000.0001) %MON dynstat_uvel_max             =   8.7749559817496E-04
(PID.TID 0000.0001) %MON dynstat_uvel_min             =  -9.3070373996440E-04
(PID.TID 0000.0001) %MON dynstat_uvel_mean            =   4.4130185843941E-06
(PID.TID 0000.0001) %MON dynstat_uvel_sd              =   4.7749470132097E-05
(PID.TID 0000.0001) %MON dynstat_uvel_del2            =   1.7831990346476E-07
(PID.TID 0000.0001) %MON dynstat_vvel_max             =   1.3880395828920E-03
(PID.TID 0000.0001) %MON dynstat_vvel_min             =  -8.3968252747445E-04
(PID.TID 0000.0001) %MON dynstat_vvel_mean            =   1.9109497575125E-04
(PID.TID 0000.0001) %MON dynstat_vvel_sd              =   1.3847951872054E-04
(PID.TID 0000.0001) %MON dynstat_vvel_del2            =   5.7902993571976E-07
(PID.TID 0000.0001) %MON dynstat_wvel_max             =   5.0445877838609E-04
(PID.TID 0000.0001) %MON dynstat_wvel_min             =  -5.2552166226066E-04
(PID.TID 0000.0001) %MON dynstat_wvel_mean            =  -3.8113687702158E-07
(PID.TID 0000.0001) %MON dynstat_wvel_sd              =   5.7093669981429E-05
(PID.TID 0000.0001) %MON dynstat_wvel_del2            =   3.2294043560854E-07
(PID.TID 0000.0001) %MON dynstat_theta_max            =   1.2000000000000E+00
(PID.TID 0000.0001) %MON dynstat_theta_min            =  -1.0000000000000E+00
(PID.TID 0000.0001) %MON dynstat_theta_mean           =   5.6914437644864E-01
(PID.TID 0000.0001) %MON dynstat_theta_sd             =   8.6860439160743E-01
(PID.TID 0000.0001) %MON dynstat_theta_del2           =   3.5248348041228E-06
(PID.TID 0000.0001) %MON dynstat_salt_max             =   3.4700000000000E+01
(PID.TID 0000.0001) %MON dynstat_salt_min             =   3.4000000000000E+01
(PID.TID 0000.0001) %MON dynstat_salt_mean            =   3.4499271839465E+01
(PID.TID 0000.0001) %MON dynstat_salt_sd              =   2.7637380721033E-01
(PID.TID 0000.0001) %MON dynstat_salt_del2            =   1.1220929509183E-06
(PID.TID 0000.0001) %MON advcfl_uvel_max              =   9.3070373996440E-05
(PID.TID 0000.0001) %MON advcfl_vvel_max              =   1.3880395828920E-04
(PID.TID 0000.0001) %MON advcfl_wvel_max              =   2.6276083113033E-03
(PID.TID 0000.0001) %MON advcfl_W_hf_max              =   2.6276083113033E-03
(PID.TID 0000.0001) %MON pe_b_mean                    =  -8.3426351189434E-01
(PID.TID 0000.0001) %MON ke_max                       =   6.6567318468860E-07
(PID.TID 0000.0001) %MON ke_mean                      =   2.8783334245782E-08
(PID.TID 0000.0001) %MON ke_vol                       =   4.2725458728888E+12
(PID.TID 0000.0001) // =======================================================
(PID.TID 0000.0001) // End MONITOR dynamic field statistics
(PID.TID 0000.0001) // =======================================================
(PID.TID 0000.0001) // =======================================================
(PID.TID 0000.0001) // Begin OBCS MONITOR field statistics
(PID.TID 0000.0001) // =======================================================
(PID.TID 0000.0001) %MON obc_N_vVel_max               =   2.2070479321819E-04
(PID.TID 0000.0001) %MON obc_N_vVel_min               =   2.2070479321819E-04
(PID.TID 0000.0001) %MON obc_N_vVel_mean              =   2.2070479321819E-04
(PID.TID 0000.0001) %MON obc_N_vVel_sd                =  -3.6065074707312E-21
(PID.TID 0000.0001) %MON obc_N_vVel_Int               =   1.4566516352401E+04
(PID.TID 0000.0001) // =======================================================
(PID.TID 0000.0001) // End OBCS MONITOR field statistics
(PID.TID 0000.0001) // =======================================================
 cg2d: Sum(rhs),rhsMax =   4.53445109181877E+00  2.99857781627055E+02
(PID.TID 0000.0001)      cg2d_init_res =   1.26102548242200E-05
(PID.TID 0000.0001)      cg2d_iters(min,last) =      -1      89
(PID.TID 0000.0001)      cg2d_last_res =   9.85764891206472E-12
(PID.TID 0000.0001) // =======================================================
(PID.TID 0000.0001) // Begin MONITOR dynamic field statistics
(PID.TID 0000.0001) // =======================================================
(PID.TID 0000.0001) %MON time_tsnumber                =                    57
(PID.TID 0000.0001) %MON time_secondsf                =   5.7000000000000E+03
(PID.TID 0000.0001) %MON dynstat_eta_max              =   5.7917135504727E+00
(PID.TID 0000.0001) %MON dynstat_eta_min              =  -1.4208987415611E+01
(PID.TID 0000.0001) %MON dynstat_eta_mean             =  -2.5179452690540E+00
(PID.TID 0000.0001) %MON dynstat_eta_sd               =   4.9548466719419E+00
(PID.TID 0000.0001) %MON dynstat_eta_del2             =   2.0730697202858E-01
(PID.TID 0000.0001) %MON dynstat_uvel_max             =   9.0153375402657E-04
(PID.TID 0000.0001) %MON dynstat_uvel_min             =  -9.6565702058982E-04
(PID.TID 0000.0001) %MON dynstat_uvel_mean            =   4.3084414049325E-06
(PID.TID 0000.0001) %MON dynstat_uvel_sd              =   4.8332134410203E-05
(PID.TID 0000.0001) %MON dynstat_uvel_del2            =   1.8499117110946E-07
(PID.TID 0000.0001) %MON dynstat_vvel_max             =   1.3035965813977E-03
(PID.TID 0000.0001) %MON dynstat_vvel_min             =  -9.1611051670353E-04
(PID.TID 0000.0001) %MON dynstat_vvel_mean            =   1.1569477475351E-04
(PID.TID 0000.0001) %MON dynstat_vvel_sd              =   1.3804400467096E-04
(PID.TID 0000.0001) %MON dynstat_vvel_del2            =   5.8596367638879E-07
(PID.TID 0000.0001) %MON dynstat_wvel_max             =   5.4226828001306E-04
(PID.TID 0000.0001) %MON dynstat_wvel_min             =  -4.8400341988161E-04
(PID.TID 0000.0001) %MON dynstat_wvel_mean            =  -4.8593330632732E-07
(PID.TID 0000.0001) %MON dynstat_wvel_sd              =   5.8570091725602E-05
(PID.TID 0000.0001) %MON dynstat_wvel_del2            =   3.3456674945312E-07
(PID.TID 0000.0001) %MON dynstat_theta_max            =   1.2000000000000E+00
(PID.TID 0000.0001) %MON dynstat_theta_min            =  -1.0000000000000E+00
(PID.TID 0000.0001) %MON dynstat_theta_mean           =   5.6914417092811E-01
(PID.TID 0000.0001) %MON dynstat_theta_sd             =   8.6860424918208E-01
(PID.TID 0000.0001) %MON dynstat_theta_del2           =   3.4976158098115E-06
(PID.TID 0000.0001) %MON dynstat_salt_max             =   3.4700000000000E+01
(PID.TID 0000.0001) %MON dynstat_salt_min             =   3.4000000000000E+01
(PID.TID 0000.0001) %MON dynstat_salt_mean            =   3.4499271753050E+01
(PID.TID 0000.0001) %MON dynstat_salt_sd              =   2.7637375618119E-01
(PID.TID 0000.0001) %MON dynstat_salt_del2            =   1.1133891352461E-06
(PID.TID 0000.0001) %MON advcfl_uvel_max              =   9.6565702058982E-05
(PID.TID 0000.0001) %MON advcfl_vvel_max              =   1.3035965813977E-04
(PID.TID 0000.0001) %MON advcfl_wvel_max              =   2.7113414000653E-03
(PID.TID 0000.0001) %MON advcfl_W_hf_max              =   2.7113414000653E-03
(PID.TID 0000.0001) %MON pe_b_mean                    =  -8.3428874235506E-01
(PID.TID 0000.0001) %MON ke_max                       =   6.3864232953779E-07
(PID.TID 0000.0001) %MON ke_mean                      =   1.7277877798950E-08
(PID.TID 0000.0001) %MON ke_vol                       =   4.2725444292398E+12
(PID.TID 0000.0001) // =======================================================
(PID.TID 0000.0001) // End MONITOR dynamic field statistics
(PID.TID 0000.0001) // =======================================================
(PID.TID 0000.0001) // =======================================================
(PID.TID 0000.0001) // Begin OBCS MONITOR field statistics
(PID.TID 0000.0001) // =======================================================
(PID.TID 0000.0001) %MON obc_N_vVel_max               =   1.5714251950494E-04
(PID.TID 0000.0001) %MON obc_N_vVel_min               =   1.5714251950494E-04
(PID.TID 0000.0001) %MON obc_N_vVel_mean              =   1.5714251950494E-04
(PID.TID 0000.0001) %MON obc_N_vVel_sd                =   1.9675378692031E-11
(PID.TID 0000.0001) %MON obc_N_vVel_Int               =   1.0371406287326E+04
(PID.TID 0000.0001) // =======================================================
(PID.TID 0000.0001) // End OBCS MONITOR field statistics
(PID.TID 0000.0001) // =======================================================
 cg2d: Sum(rhs),rhsMax =   4.53463464879275E+00  2.99857788511714E+02
(PID.TID 0000.0001)      cg2d_init_res =   1.30324397086756E-05
(PID.TID 0000.0001)      cg2d_iters(min,last) =      -1      87
(PID.TID 0000.0001)      cg2d_last_res =   9.97483836464320E-12
(PID.TID 0000.0001) // =======================================================
(PID.TID 0000.0001) // Begin MONITOR dynamic field statistics
(PID.TID 0000.0001) // =======================================================
(PID.TID 0000.0001) %MON time_tsnumber                =                    58
(PID.TID 0000.0001) %MON time_secondsf                =   5.8000000000000E+03
(PID.TID 0000.0001) %MON dynstat_eta_max              =   5.7915574838133E+00
(PID.TID 0000.0001) %MON dynstat_eta_min              =  -1.4208922386171E+01
(PID.TID 0000.0001) %MON dynstat_eta_mean             =  -2.5180472546215E+00
(PID.TID 0000.0001) %MON dynstat_eta_sd               =   4.9548230157520E+00
(PID.TID 0000.0001) %MON dynstat_eta_del2             =   2.0730697352615E-01
(PID.TID 0000.0001) %MON dynstat_uvel_max             =   9.2457948842295E-04
(PID.TID 0000.0001) %MON dynstat_uvel_min             =  -9.9975385957318E-04
(PID.TID 0000.0001) %MON dynstat_uvel_mean            =   4.0631315253184E-06
(PID.TID 0000.0001) %MON dynstat_uvel_sd              =   4.8926786477003E-05
(PID.TID 0000.0001) %MON dynstat_uvel_del2            =   1.9149490129690E-07
(PID.TID 0000.0001) %MON dynstat_vvel_max             =   1.2205776430871E-03
(PID.TID 0000.0001) %MON dynstat_vvel_min             =  -9.8133943705269E-04
(PID.TID 0000.0001) %MON dynstat_vvel_mean            =   4.2393950445918E-05
(PID.TID 0000.0001) %MON dynstat_vvel_sd              =   1.3945900399167E-04
(PID.TID 0000.0001) %MON dynstat_vvel_del2            =   5.8884104816068E-07
(PID.TID 0000.0001) %MON dynstat_wvel_max             =   5.6646847224342E-04
(PID.TID 0000.0001) %MON dynstat_wvel_min             =  -4.3254805413825E-04
(PID.TID 0000.0001) %MON dynstat_wvel_mean            =  -5.7033495651051E-07
(PID.TID 0000.0001) %MON dynstat_wvel_sd              =   5.9876985293235E-05
(PID.TID 0000.0001) %MON dynstat_wvel_del2            =   3.4231792827067E-07
(PID.TID 0000.0001) %MON dynstat_theta_max            =   1.2000000000000E+00
(PID.TID 0000.0001) %MON dynstat_theta_min            =  -1.0000000000000E+00
(PID.TID 0000.0001) %MON dynstat_theta_mean           =   5.6914393707811E-01
(PID.TID 0000.0001) %MON dynstat_theta_sd             =   8.6860411846306E-01
(PID.TID 0000.0001) %MON dynstat_theta_del2           =   3.4727655924564E-06
(PID.TID 0000.0001) %MON dynstat_salt_max             =   3.4700000000000E+01
(PID.TID 0000.0001) %MON dynstat_salt_min             =   3.4000000000000E+01
(PID.TID 0000.0001) %MON dynstat_salt_mean            =   3.4499271657621E+01
(PID.TID 0000.0001) %MON dynstat_salt_sd              =   2.7637370886212E-01
(PID.TID 0000.0001) %MON dynstat_salt_del2            =   1.1054346466502E-06
(PID.TID 0000.0001) %MON advcfl_uvel_max              =   9.9975385957318E-05
(PID.TID 0000.0001) %MON advcfl_vvel_max              =   1.2205776430871E-04
(PID.TID 0000.0001) %MON advcfl_wvel_max              =   2.8323423612171E-03
(PID.TID 0000.0001) %MON advcfl_W_hf_max              =   2.8323423612171E-03
(PID.TID 0000.0001) %MON pe_b_mean                    =  -8.3429573013596E-01
(PID.TID 0000.0001) %MON ke_max                       =   6.4850456233997E-07
(PID.TID 0000.0001) %MON ke_mean                      =   1.1769441680393E-08
(PID.TID 0000.0001) %MON ke_vol                       =   4.2725434051018E+12
(PID.TID 0000.0001) // =======================================================
(PID.TID 0000.0001) // End MONITOR dynamic field statistics
(PID.TID 0000.0001) // =======================================================
(PID.TID 0000.0001) // =======================================================
(PID.TID 0000.0001) // Begin OBCS MONITOR field statistics
(PID.TID 0000.0001) // =======================================================
(PID.TID 0000.0001) %MON obc_N_vVel_max               =   9.3757095207677E-05
(PID.TID 0000.0001) %MON obc_N_vVel_min               =   9.3757095207675E-05
(PID.TID 0000.0001) %MON obc_N_vVel_mean              =   9.3757095207677E-05
(PID.TID 0000.0001) %MON obc_N_vVel_sd                =  -5.7406334511180E-22
(PID.TID 0000.0001) %MON obc_N_vVel_Int               =   6.1879682837067E+03
(PID.TID 0000.0001) // =======================================================
(PID.TID 0000.0001) // End OBCS MONITOR field statistics
(PID.TID 0000.0001) // =======================================================
 cg2d: Sum(rhs),rhsMax =   4.53469466722175E+00  2.99857824483921E+02
(PID.TID 0000.0001)      cg2d_init_res =   1.36697421008826E-05
(PID.TID 0000.0001)      cg2d_iters(min,last) =      -1      85
(PID.TID 0000.0001)      cg2d_last_res =   9.79724619238050E-12
(PID.TID 0000.0001) // =======================================================
(PID.TID 0000.0001) // Begin MONITOR dynamic field statistics
(PID.TID 0000.0001) // =======================================================
(PID.TID 0000.0001) %MON time_tsnumber                =                    59
(PID.TID 0000.0001) %MON time_secondsf                =   5.9000000000000E+03
(PID.TID 0000.0001) %MON dynstat_eta_max              =   5.7914505126689E+00
(PID.TID 0000.0001) %MON dynstat_eta_min              =  -1.4208712051374E+01
(PID.TID 0000.0001) %MON dynstat_eta_mean             =  -2.5180808844666E+00
(PID.TID 0000.0001) %MON dynstat_eta_sd               =   4.9547797446389E+00
(PID.TID 0000.0001) %MON dynstat_eta_del2             =   2.0730697508470E-01
(PID.TID 0000.0001) %MON dynstat_uvel_max             =   9.4672145120001E-04
(PID.TID 0000.0001) %MON dynstat_uvel_min             =  -1.0329886607421E-03
(PID.TID 0000.0001) %MON dynstat_uvel_mean            =   3.7032098330031E-06
(PID.TID 0000.0001) %MON dynstat_uvel_sd              =   4.9523006626109E-05
(PID.TID 0000.0001) %MON dynstat_uvel_del2            =   1.9783756588071E-07
(PID.TID 0000.0001) %MON dynstat_vvel_max             =   1.1416293214968E-03
(PID.TID 0000.0001) %MON dynstat_vvel_min             =  -1.0331229156510E-03
(PID.TID 0000.0001) %MON dynstat_vvel_mean            =  -2.6988304724408E-05
(PID.TID 0000.0001) %MON dynstat_vvel_sd              =   1.4211640022887E-04
(PID.TID 0000.0001) %MON dynstat_vvel_del2            =   5.8750488197447E-07
(PID.TID 0000.0001) %MON dynstat_wvel_max             =   5.7673551283900E-04
(PID.TID 0000.0001) %MON dynstat_wvel_min             =  -4.0006778295811E-04
(PID.TID 0000.0001) %MON dynstat_wvel_mean            =  -6.3350206434710E-07
(PID.TID 0000.0001) %MON dynstat_wvel_sd              =   6.0863326722251E-05
(PID.TID 0000.0001) %MON dynstat_wvel_del2            =   3.4556775044484E-07
(PID.TID 0000.0001) %MON dynstat_theta_max            =   1.2000000000000E+00
(PID.TID 0000.0001) %MON dynstat_theta_min            =  -1.0000000000000E+00
(PID.TID 0000.0001) %MON dynstat_theta_mean           =   5.6914367604764E-01
(PID.TID 0000.0001) %MON dynstat_theta_sd             =   8.6860399847711E-01
(PID.TID 0000.0001) %MON dynstat_theta_del2           =   3.4508507055900E-06
(PID.TID 0000.0001) %MON dynstat_salt_max             =   3.4700000000000E+01
(PID.TID 0000.0001) %MON dynstat_salt_min             =   3.4000000000000E+01
(PID.TID 0000.0001) %MON dynstat_salt_mean            =   3.4499271553545E+01
(PID.TID 0000.0001) %MON dynstat_salt_sd              =   2.7637366494498E-01
(PID.TID 0000.0001) %MON dynstat_salt_del2            =   1.0984119803091E-06
(PID.TID 0000.0001) %MON advcfl_uvel_max              =   1.0329886607421E-04
(PID.TID 0000.0001) %MON advcfl_vvel_max              =   1.1416293214968E-04
(PID.TID 0000.0001) %MON advcfl_wvel_max              =   2.8836775641950E-03
(PID.TID 0000.0001) %MON advcfl_W_hf_max              =   2.8836775641950E-03
(PID.TID 0000.0001) %MON pe_b_mean                    =  -8.3428555818811E-01
(PID.TID 0000.0001) %MON ke_max                       =   6.8207102956608E-07
(PID.TID 0000.0001) %MON ke_mean                      =   1.1666476786763E-08
(PID.TID 0000.0001) %MON ke_vol                       =   4.2725427993075E+12
(PID.TID 0000.0001) // =======================================================
(PID.TID 0000.0001) // End MONITOR dynamic field statistics
(PID.TID 0000.0001) // =======================================================
(PID.TID 0000.0001) // =======================================================
(PID.TID 0000.0001) // Begin OBCS MONITOR field statistics
(PID.TID 0000.0001) // =======================================================
(PID.TID 0000.0001) %MON obc_N_vVel_max               =   3.2236936645404E-05
(PID.TID 0000.0001) %MON obc_N_vVel_min               =   3.2236936645403E-05
(PID.TID 0000.0001) %MON obc_N_vVel_mean              =   3.2236936645404E-05
(PID.TID 0000.0001) %MON obc_N_vVel_sd                =  -6.0797775022648E-23
(PID.TID 0000.0001) %MON obc_N_vVel_Int               =   2.1276378185966E+03
(PID.TID 0000.0001) // =======================================================
(PID.TID 0000.0001) // End OBCS MONITOR field statistics
(PID.TID 0000.0001) // =======================================================
 cg2d: Sum(rhs),rhsMax =   4.53463797131086E+00  2.99857888957524E+02
(PID.TID 0000.0001)      cg2d_init_res =   1.43885647079205E-05
(PID.TID 0000.0001)      cg2d_iters(min,last) =      -1      89
(PID.TID 0000.0001)      cg2d_last_res =   9.54272025166847E-12
(PID.TID 0000.0001) // =======================================================
(PID.TID 0000.0001) // Begin MONITOR dynamic field statistics
(PID.TID 0000.0001) // =======================================================
(PID.TID 0000.0001) %MON time_tsnumber                =                    60
(PID.TID 0000.0001) %MON time_secondsf                =   6.0000000000000E+03
(PID.TID 0000.0001) %MON dynstat_eta_max              =   5.7913916204463E+00
(PID.TID 0000.0001) %MON dynstat_eta_min              =  -1.4208371809586E+01
(PID.TID 0000.0001) %MON dynstat_eta_mean             =  -2.5180499430813E+00
(PID.TID 0000.0001) %MON dynstat_eta_sd               =   4.9547193953124E+00
(PID.TID 0000.0001) %MON dynstat_eta_del2             =   2.0730697668824E-01
(PID.TID 0000.0001) %MON dynstat_uvel_max             =   9.6804203860401E-04
(PID.TID 0000.0001) %MON dynstat_uvel_min             =  -1.0653597937145E-03
(PID.TID 0000.0001) %MON dynstat_uvel_mean            =   3.2573992658895E-06
(PID.TID 0000.0001) %MON dynstat_uvel_sd              =   5.0108614349897E-05
(PID.TID 0000.0001) %MON dynstat_uvel_del2            =   2.0402587085812E-07
(PID.TID 0000.0001) %MON dynstat_vvel_max             =   1.0690891994454E-03
(PID.TID 0000.0001) %MON dynstat_vvel_min             =  -1.0877476123232E-03
(PID.TID 0000.0001) %MON dynstat_vvel_mean            =  -9.0850585291700E-05
(PID.TID 0000.0001) %MON dynstat_vvel_sd              =   1.4535974307730E-04
(PID.TID 0000.0001) %MON dynstat_vvel_del2            =   5.8227520598950E-07
(PID.TID 0000.0001) %MON dynstat_wvel_max             =   5.7310736653601E-04
(PID.TID 0000.0001) %MON dynstat_wvel_min             =  -4.2919242725893E-04
(PID.TID 0000.0001) %MON dynstat_wvel_mean            =  -6.7528544157348E-07
(PID.TID 0000.0001) %MON dynstat_wvel_sd              =   6.1430727906537E-05
(PID.TID 0000.0001) %MON dynstat_wvel_del2            =   3.4414142630798E-07
(PID.TID 0000.0001) %MON dynstat_theta_max            =   1.2000000000000E+00
(PID.TID 0000.0001) %MON dynstat_theta_min            =  -1.0000000000000E+00
(PID.TID 0000.0001) %MON dynstat_theta_mean           =   5.6914338962443E-01
(PID.TID 0000.0001) %MON dynstat_theta_sd             =   8.6860388804976E-01
(PID.TID 0000.0001) %MON dynstat_theta_del2           =   3.4320215584237E-06
(PID.TID 0000.0001) %MON dynstat_salt_max             =   3.4700000000000E+01
(PID.TID 0000.0001) %MON dynstat_salt_min             =   3.4000000000000E+01
(PID.TID 0000.0001) %MON dynstat_salt_mean            =   3.4499271441388E+01
(PID.TID 0000.0001) %MON dynstat_salt_sd              =   2.7637362405777E-01
(PID.TID 0000.0001) %MON dynstat_salt_del2            =   1.0923697772369E-06
(PID.TID 0000.0001) %MON advcfl_uvel_max              =   1.0653597937145E-04
(PID.TID 0000.0001) %MON advcfl_vvel_max              =   1.0877476123232E-04
(PID.TID 0000.0001) %MON advcfl_wvel_max              =   2.8655368326801E-03
(PID.TID 0000.0001) %MON advcfl_W_hf_max              =   2.8655368326801E-03
(PID.TID 0000.0001) %MON pe_b_mean                    =  -8.3425969694382E-01
(PID.TID 0000.0001) %MON ke_max                       =   7.2727372039689E-07
(PID.TID 0000.0001) %MON ke_mean                      =   1.5923527779466E-08
(PID.TID 0000.0001) %MON ke_vol                       =   4.2725425995463E+12
(PID.TID 0000.0001) // =======================================================
(PID.TID 0000.0001) // End MONITOR dynamic field statistics
(PID.TID 0000.0001) // =======================================================
(PID.TID 0000.0001) // =======================================================
(PID.TID 0000.0001) // Begin OBCS MONITOR field statistics
(PID.TID 0000.0001) // =======================================================
(PID.TID 0000.0001) %MON obc_N_vVel_max               =  -2.5877179242102E-05
(PID.TID 0000.0001) %MON obc_N_vVel_min               =  -2.5877179242103E-05
(PID.TID 0000.0001) %MON obc_N_vVel_mean              =  -2.5877179242103E-05
(PID.TID 0000.0001) %MON obc_N_vVel_sd                =  -5.1802185861133E-23
(PID.TID 0000.0001) %MON obc_N_vVel_Int               =  -1.7078938299788E+03
(PID.TID 0000.0001) // =======================================================
(PID.TID 0000.0001) // End OBCS MONITOR field statistics
(PID.TID 0000.0001) // =======================================================
 cg2d: Sum(rhs),rhsMax =   4.53447410859736E+00  2.99857980548863E+02
(PID.TID 0000.0001)      cg2d_init_res =   1.50765157320588E-05
(PID.TID 0000.0001)      cg2d_iters(min,last) =      -1      90
(PID.TID 0000.0001)      cg2d_last_res =   9.39012721160790E-12
(PID.TID 0000.0001) // =======================================================
(PID.TID 0000.0001) // Begin MONITOR dynamic field statistics
(PID.TID 0000.0001) // =======================================================
(PID.TID 0000.0001) %MON time_tsnumber                =                    61
(PID.TID 0000.0001) %MON time_secondsf                =   6.1000000000000E+03
(PID.TID 0000.0001) %MON dynstat_eta_max              =   5.7913783973955E+00
(PID.TID 0000.0001) %MON dynstat_eta_min              =  -1.4207919108094E+01
(PID.TID 0000.0001) %MON dynstat_eta_mean             =  -2.5179597204724E+00
(PID.TID 0000.0001) %MON dynstat_eta_sd               =   4.9546448054672E+00
(PID.TID 0000.0001) %MON dynstat_eta_del2             =   2.0730697831730E-01
(PID.TID 0000.0001) %MON dynstat_uvel_max             =   9.8861596582722E-04
(PID.TID 0000.0001) %MON dynstat_uvel_min             =  -1.0968675866181E-03
(PID.TID 0000.0001) %MON dynstat_uvel_mean            =   2.7546993486646E-06
(PID.TID 0000.0001) %MON dynstat_uvel_sd              =   5.0670674183255E-05
(PID.TID 0000.0001) %MON dynstat_uvel_del2            =   2.1006644532664E-07
(PID.TID 0000.0001) %MON dynstat_vvel_max             =   1.0049349270727E-03
(PID.TID 0000.0001) %MON dynstat_vvel_min             =  -1.1912964394192E-03
(PID.TID 0000.0001) %MON dynstat_vvel_mean            =  -1.4784041543822E-04
(PID.TID 0000.0001) %MON dynstat_vvel_sd              =   1.4859482337982E-04
(PID.TID 0000.0001) %MON dynstat_vvel_del2            =   5.7392438409348E-07
(PID.TID 0000.0001) %MON dynstat_wvel_max             =   5.6741487984970E-04
(PID.TID 0000.0001) %MON dynstat_wvel_min             =  -4.5345655340604E-04
(PID.TID 0000.0001) %MON dynstat_wvel_mean            =  -6.9614421110914E-07
(PID.TID 0000.0001) %MON dynstat_wvel_sd              =   6.1534311161691E-05
(PID.TID 0000.0001) %MON dynstat_wvel_del2            =   3.3828181426701E-07
(PID.TID 0000.0001) %MON dynstat_theta_max            =   1.2000000000000E+00
(PID.TID 0000.0001) %MON dynstat_theta_min            =  -1.0000000000000E+00
(PID.TID 0000.0001) %MON dynstat_theta_mean           =   5.6914308016155E-01
(PID.TID 0000.0001) %MON dynstat_theta_sd             =   8.6860378651096E-01
(PID.TID 0000.0001) %MON dynstat_theta_del2           =   3.4160283526417E-06
(PID.TID 0000.0001) %MON dynstat_salt_max             =   3.4700000000000E+01
(PID.TID 0000.0001) %MON dynstat_salt_min             =   3.4000000000000E+01
(PID.TID 0000.0001) %MON dynstat_salt_mean            =   3.4499271321901E+01
(PID.TID 0000.0001) %MON dynstat_salt_sd              =   2.7637358598734E-01
(PID.TID 0000.0001) %MON dynstat_salt_del2            =   1.0872258383016E-06
(PID.TID 0000.0001) %MON advcfl_uvel_max              =   1.0968675866181E-04
(PID.TID 0000.0001) %MON advcfl_vvel_max              =   1.1912964394192E-04
(PID.TID 0000.0001) %MON advcfl_wvel_max              =   2.8370743992485E-03
(PID.TID 0000.0001) %MON advcfl_W_hf_max              =   2.8370743992485E-03
(PID.TID 0000.0001) %MON pe_b_mean                    =  -8.3421994048099E-01
(PID.TID 0000.0001) %MON ke_max                       =   7.8092616682157E-07
(PID.TID 0000.0001) %MON ke_mean                      =   2.3204473760194E-08
(PID.TID 0000.0001) %MON ke_vol                       =   4.2725427833381E+12
(PID.TID 0000.0001) // =======================================================
(PID.TID 0000.0001) // End MONITOR dynamic field statistics
(PID.TID 0000.0001) // =======================================================
(PID.TID 0000.0001) // =======================================================
(PID.TID 0000.0001) // Begin OBCS MONITOR field statistics
(PID.TID 0000.0001) // =======================================================
(PID.TID 0000.0001) %MON obc_N_vVel_max               =  -7.9230289135901E-05
(PID.TID 0000.0001) %MON obc_N_vVel_min               =  -7.9230289135903E-05
(PID.TID 0000.0001) %MON obc_N_vVel_mean              =  -7.9230289135901E-05
(PID.TID 0000.0001) %MON obc_N_vVel_sd                =   2.3062461574420E-11
(PID.TID 0000.0001) %MON obc_N_vVel_Int               =  -5.2291990829694E+03
(PID.TID 0000.0001) // =======================================================
(PID.TID 0000.0001) // End OBCS MONITOR field statistics
(PID.TID 0000.0001) // =======================================================
 cg2d: Sum(rhs),rhsMax =   4.53421491702695E+00  2.99858097156156E+02
(PID.TID 0000.0001)      cg2d_init_res =   1.56516326485770E-05
(PID.TID 0000.0001)      cg2d_iters(min,last) =      -1      91
(PID.TID 0000.0001)      cg2d_last_res =   9.25589829117134E-12
(PID.TID 0000.0001) // =======================================================
(PID.TID 0000.0001) // Begin MONITOR dynamic field statistics
(PID.TID 0000.0001) // =======================================================
(PID.TID 0000.0001) %MON time_tsnumber                =                    62
(PID.TID 0000.0001) %MON time_secondsf                =   6.2000000000000E+03
(PID.TID 0000.0001) %MON dynstat_eta_max              =   5.7914072365458E+00
(PID.TID 0000.0001) %MON dynstat_eta_min              =  -1.4207372938666E+01
(PID.TID 0000.0001) %MON dynstat_eta_mean             =  -2.5178167724384E+00
(PID.TID 0000.0001) %MON dynstat_eta_sd               =   4.9545590130478E+00
(PID.TID 0000.0001) %MON dynstat_eta_del2             =   2.0730697995420E-01
(PID.TID 0000.0001) %MON dynstat_uvel_max             =   1.0085091668799E-03
(PID.TID 0000.0001) %MON dynstat_uvel_min             =  -1.1275136089051E-03
(PID.TID 0000.0001) %MON dynstat_uvel_mean            =   2.2223190696452E-06
(PID.TID 0000.0001) %MON dynstat_uvel_sd              =   5.1196805880161E-05
(PID.TID 0000.0001) %MON dynstat_uvel_del2            =   2.1596538545695E-07
(PID.TID 0000.0001) %MON dynstat_vvel_max             =   9.5074890031555E-04
(PID.TID 0000.0001) %MON dynstat_vvel_min             =  -1.2822936104526E-03
(PID.TID 0000.0001) %MON dynstat_vvel_mean            =  -1.9687617330421E-04
(PID.TID 0000.0001) %MON dynstat_vvel_sd              =   1.5135076611270E-04
(PID.TID 0000.0001) %MON dynstat_vvel_del2            =   5.6362339463973E-07
(PID.TID 0000.0001) %MON dynstat_wvel_max             =   5.5056515391687E-04
(PID.TID 0000.0001) %MON dynstat_wvel_min             =  -4.7240170040167E-04
(PID.TID 0000.0001) %MON dynstat_wvel_mean            =  -6.9705678798204E-07
(PID.TID 0000.0001) %MON dynstat_wvel_sd              =   6.1180244967127E-05
(PID.TID 0000.0001) %MON dynstat_wvel_del2            =   3.2862456938035E-07
(PID.TID 0000.0001) %MON dynstat_theta_max            =   1.2000000000000E+00
(PID.TID 0000.0001) %MON dynstat_theta_min            =  -1.0000000000000E+00
(PID.TID 0000.0001) %MON dynstat_theta_mean           =   5.6914275048954E-01
(PID.TID 0000.0001) %MON dynstat_theta_sd             =   8.6860369237364E-01
(PID.TID 0000.0001) %MON dynstat_theta_del2           =   3.4022541737690E-06
(PID.TID 0000.0001) %MON dynstat_salt_max             =   3.4700000000000E+01
(PID.TID 0000.0001) %MON dynstat_salt_min             =   3.4000000000000E+01
(PID.TID 0000.0001) %MON dynstat_salt_mean            =   3.4499271195982E+01
(PID.TID 0000.0001) %MON dynstat_salt_sd              =   2.7637355026591E-01
(PID.TID 0000.0001) %MON dynstat_salt_del2            =   1.0827870446684E-06
(PID.TID 0000.0001) %MON advcfl_uvel_max              =   1.1275136089051E-04
(PID.TID 0000.0001) %MON advcfl_vvel_max              =   1.2822936104526E-04
(PID.TID 0000.0001) %MON advcfl_wvel_max              =   2.7528257695843E-03
(PID.TID 0000.0001) %MON advcfl_W_hf_max              =   2.7528257695843E-03
(PID.TID 0000.0001) %MON pe_b_mean                    =  -8.3416833787104E-01
(PID.TID 0000.0001) %MON ke_max                       =   8.3956221554552E-07
(PID.TID 0000.0001) %MON ke_mean                      =   3.2055963244393E-08
(PID.TID 0000.0001) %MON ke_vol                       =   4.2725433192604E+12
(PID.TID 0000.0001) // =======================================================
(PID.TID 0000.0001) // End MONITOR dynamic field statistics
(PID.TID 0000.0001) // =======================================================
(PID.TID 0000.0001) // =======================================================
(PID.TID 0000.0001) // Begin OBCS MONITOR field statistics
(PID.TID 0000.0001) // =======================================================
(PID.TID 0000.0001) %MON obc_N_vVel_max               =  -1.2668318047194E-04
(PID.TID 0000.0001) %MON obc_N_vVel_min               =  -1.2668318047195E-04
(PID.TID 0000.0001) %MON obc_N_vVel_mean              =  -1.2668318047195E-04
(PID.TID 0000.0001) %MON obc_N_vVel_sd                =   9.2750624636988E-12
(PID.TID 0000.0001) %MON obc_N_vVel_Int               =  -8.3610899111484E+03
(PID.TID 0000.0001) // =======================================================
(PID.TID 0000.0001) // End OBCS MONITOR field statistics
(PID.TID 0000.0001) // =======================================================
 cg2d: Sum(rhs),rhsMax =   4.53387405010472E+00  2.99858236067591E+02
(PID.TID 0000.0001)      cg2d_init_res =   1.60588928952323E-05
(PID.TID 0000.0001)      cg2d_iters(min,last) =      -1      92
(PID.TID 0000.0001)      cg2d_last_res =   8.23513668566216E-12
(PID.TID 0000.0001) // =======================================================
(PID.TID 0000.0001) // Begin MONITOR dynamic field statistics
(PID.TID 0000.0001) // =======================================================
(PID.TID 0000.0001) %MON time_tsnumber                =                    63
(PID.TID 0000.0001) %MON time_secondsf                =   6.3000000000000E+03
(PID.TID 0000.0001) %MON dynstat_eta_max              =   5.7914735525884E+00
(PID.TID 0000.0001) %MON dynstat_eta_min              =  -1.4206753355630E+01
(PID.TID 0000.0001) %MON dynstat_eta_mean             =  -2.5176286578093E+00
(PID.TID 0000.0001) %MON dynstat_eta_sd               =   4.9544651572417E+00
(PID.TID 0000.0001) %MON dynstat_eta_del2             =   2.0730698157897E-01
(PID.TID 0000.0001) %MON dynstat_uvel_max             =   1.0277781616175E-03
(PID.TID 0000.0001) %MON dynstat_uvel_min             =  -1.1573002964784E-03
(PID.TID 0000.0001) %MON dynstat_uvel_mean            =   1.6840541154231E-06
(PID.TID 0000.0001) %MON dynstat_uvel_sd              =   5.1676676575723E-05
(PID.TID 0000.0001) %MON dynstat_uvel_del2            =   2.2172806667623E-07
(PID.TID 0000.0001) %MON dynstat_vvel_max             =   9.0769887776609E-04
(PID.TID 0000.0001) %MON dynstat_vvel_min             =  -1.3597649075257E-03
(PID.TID 0000.0001) %MON dynstat_vvel_mean            =  -2.3715962289245E-04
(PID.TID 0000.0001) %MON dynstat_vvel_sd              =   1.5330130800569E-04
(PID.TID 0000.0001) %MON dynstat_vvel_del2            =   5.5284659687990E-07
(PID.TID 0000.0001) %MON dynstat_wvel_max             =   5.2098223805952E-04
(PID.TID 0000.0001) %MON dynstat_wvel_min             =  -4.8648998885830E-04
(PID.TID 0000.0001) %MON dynstat_wvel_mean            =  -6.7943075527209E-07
(PID.TID 0000.0001) %MON dynstat_wvel_sd              =   6.0421145166346E-05
(PID.TID 0000.0001) %MON dynstat_wvel_del2            =   3.1617560341934E-07
(PID.TID 0000.0001) %MON dynstat_theta_max            =   1.2000000000000E+00
(PID.TID 0000.0001) %MON dynstat_theta_min            =  -1.0000000000000E+00
(PID.TID 0000.0001) %MON dynstat_theta_mean           =   5.6914240381696E-01
(PID.TID 0000.0001) %MON dynstat_theta_sd             =   8.6860360372999E-01
(PID.TID 0000.0001) %MON dynstat_theta_del2           =   3.3898560039263E-06
(PID.TID 0000.0001) %MON dynstat_salt_max             =   3.4700000000000E+01
(PID.TID 0000.0001) %MON dynstat_salt_min             =   3.4000000000000E+01
(PID.TID 0000.0001) %MON dynstat_salt_mean            =   3.4499271064654E+01
(PID.TID 0000.0001) %MON dynstat_salt_sd              =   2.7637351628884E-01
(PID.TID 0000.0001) %MON dynstat_salt_del2            =   1.0787855199260E-06
(PID.TID 0000.0001) %MON advcfl_uvel_max              =   1.1573002964784E-04
(PID.TID 0000.0001) %MON advcfl_vvel_max              =   1.3597649075257E-04
(PID.TID 0000.0001) %MON advcfl_wvel_max              =   2.6049111902976E-03
(PID.TID 0000.0001) %MON advcfl_W_hf_max              =   2.6049111902976E-03
(PID.TID 0000.0001) %MON pe_b_mean                    =  -8.3410712199813E-01
(PID.TID 0000.0001) %MON ke_max                       =   8.9982259211730E-07
(PID.TID 0000.0001) %MON ke_mean                      =   4.1071523407917E-08
(PID.TID 0000.0001) %MON ke_vol                       =   4.2725441683717E+12
(PID.TID 0000.0001) // =======================================================
(PID.TID 0000.0001) // End MONITOR dynamic field statistics
(PID.TID 0000.0001) // =======================================================
(PID.TID 0000.0001) // =======================================================
(PID.TID 0000.0001) // Begin OBCS MONITOR field statistics
(PID.TID 0000.0001) // =======================================================
(PID.TID 0000.0001) %MON obc_N_vVel_max               =  -1.6733312494736E-04
(PID.TID 0000.0001) %MON obc_N_vVel_min               =  -1.6733312494736E-04
(PID.TID 0000.0001) %MON obc_N_vVel_mean              =  -1.6733312494736E-04
(PID.TID 0000.0001) %MON obc_N_vVel_sd                =   3.6561234523545E-11
(PID.TID 0000.0001) %MON obc_N_vVel_Int               =  -1.1043986246526E+04
(PID.TID 0000.0001) // =======================================================
(PID.TID 0000.0001) // End OBCS MONITOR field statistics
(PID.TID 0000.0001) // =======================================================
 cg2d: Sum(rhs),rhsMax =   4.53346647972847E+00  2.99858394089095E+02
(PID.TID 0000.0001)      cg2d_init_res =   1.62687746360870E-05
(PID.TID 0000.0001)      cg2d_iters(min,last) =      -1      92
(PID.TID 0000.0001)      cg2d_last_res =   8.77593771317177E-12
(PID.TID 0000.0001) // =======================================================
(PID.TID 0000.0001) // Begin MONITOR dynamic field statistics
(PID.TID 0000.0001) // =======================================================
(PID.TID 0000.0001) %MON time_tsnumber                =                    64
(PID.TID 0000.0001) %MON time_secondsf                =   6.4000000000000E+03
(PID.TID 0000.0001) %MON dynstat_eta_max              =   5.7915720295368E+00
(PID.TID 0000.0001) %MON dynstat_eta_min              =  -1.4206081007654E+01
(PID.TID 0000.0001) %MON dynstat_eta_mean             =  -2.5174036634595E+00
(PID.TID 0000.0001) %MON dynstat_eta_sd               =   4.9543663847626E+00
(PID.TID 0000.0001) %MON dynstat_eta_del2             =   2.0730698317502E-01
(PID.TID 0000.0001) %MON dynstat_uvel_max             =   1.0464698576591E-03
(PID.TID 0000.0001) %MON dynstat_uvel_min             =  -1.1862301654819E-03
(PID.TID 0000.0001) %MON dynstat_uvel_mean            =   1.1592141192173E-06
(PID.TID 0000.0001) %MON dynstat_uvel_sd              =   5.2103383318683E-05
(PID.TID 0000.0001) %MON dynstat_uvel_del2            =   2.2735905230310E-07
(PID.TID 0000.0001) %MON dynstat_vvel_max             =   8.7653459977766E-04
(PID.TID 0000.0001) %MON dynstat_vvel_min             =  -1.4231412867631E-03
(PID.TID 0000.0001) %MON dynstat_vvel_mean            =  -2.6817928064188E-04
(PID.TID 0000.0001) %MON dynstat_vvel_sd              =   1.5426286767476E-04
(PID.TID 0000.0001) %MON dynstat_vvel_del2            =   5.4322303629353E-07
(PID.TID 0000.0001) %MON dynstat_wvel_max             =   4.7971718957772E-04
(PID.TID 0000.0001) %MON dynstat_wvel_min             =  -5.0190767453578E-04
(PID.TID 0000.0001) %MON dynstat_wvel_mean            =  -6.4501955242094E-07
(PID.TID 0000.0001) %MON dynstat_wvel_sd              =   5.9349706282221E-05
(PID.TID 0000.0001) %MON dynstat_wvel_del2            =   3.0227918207230E-07
(PID.TID 0000.0001) %MON dynstat_theta_max            =   1.2000000000000E+00
(PID.TID 0000.0001) %MON dynstat_theta_min            =  -1.0000000000000E+00
(PID.TID 0000.0001) %MON dynstat_theta_mean           =   5.6914204362220E-01
(PID.TID 0000.0001) %MON dynstat_theta_sd             =   8.6860351878772E-01
(PID.TID 0000.0001) %MON dynstat_theta_del2           =   3.3778482943775E-06
(PID.TID 0000.0001) %MON dynstat_salt_max             =   3.4700000000000E+01
(PID.TID 0000.0001) %MON dynstat_salt_min             =   3.4000000000000E+01
(PID.TID 0000.0001) %MON dynstat_salt_mean            =   3.4499270929022E+01
(PID.TID 0000.0001) %MON dynstat_salt_sd              =   2.7637348348736E-01
(PID.TID 0000.0001) %MON dynstat_salt_del2            =   1.0749085638726E-06
(PID.TID 0000.0001) %MON advcfl_uvel_max              =   1.1862301654819E-04
(PID.TID 0000.0001) %MON advcfl_vvel_max              =   1.4231412867631E-04
(PID.TID 0000.0001) %MON advcfl_wvel_max              =   2.5095383726789E-03
(PID.TID 0000.0001) %MON advcfl_W_hf_max              =   2.5095383726789E-03
(PID.TID 0000.0001) %MON pe_b_mean                    =  -8.3403863804344E-01
(PID.TID 0000.0001) %MON ke_max                       =   9.5877497606730E-07
(PID.TID 0000.0001) %MON ke_mean                      =   4.9030230606335E-08
(PID.TID 0000.0001) %MON ke_vol                       =   4.2725452857726E+12
(PID.TID 0000.0001) // =======================================================
(PID.TID 0000.0001) // End MONITOR dynamic field statistics
(PID.TID 0000.0001) // =======================================================
(PID.TID 0000.0001) // =======================================================
(PID.TID 0000.0001) // Begin OBCS MONITOR field statistics
(PID.TID 0000.0001) // =======================================================
(PID.TID 0000.0001) %MON obc_N_vVel_max               =  -2.0052488245047E-04
(PID.TID 0000.0001) %MON obc_N_vVel_min               =  -2.0052488245048E-04
(PID.TID 0000.0001) %MON obc_N_vVel_mean              =  -2.0052488245047E-04
(PID.TID 0000.0001) %MON obc_N_vVel_sd                =   3.5829935956994E-11
(PID.TID 0000.0001) %MON obc_N_vVel_Int               =  -1.3234642241731E+04
(PID.TID 0000.0001) // =======================================================
(PID.TID 0000.0001) // End OBCS MONITOR field statistics
(PID.TID 0000.0001) // =======================================================
 cg2d: Sum(rhs),rhsMax =   4.53300799545349E+00  2.99858567678910E+02
(PID.TID 0000.0001)      cg2d_init_res =   1.62717282017762E-05
(PID.TID 0000.0001)      cg2d_iters(min,last) =      -1      92
(PID.TID 0000.0001)      cg2d_last_res =   9.07551329057184E-12
(PID.TID 0000.0001) // =======================================================
(PID.TID 0000.0001) // Begin MONITOR dynamic field statistics
(PID.TID 0000.0001) // =======================================================
(PID.TID 0000.0001) %MON time_tsnumber                =                    65
(PID.TID 0000.0001) %MON time_secondsf                =   6.5000000000000E+03
(PID.TID 0000.0001) %MON dynstat_eta_max              =   5.7916968597171E+00
(PID.TID 0000.0001) %MON dynstat_eta_min              =  -1.4205376670065E+01
(PID.TID 0000.0001) %MON dynstat_eta_mean             =  -2.5171505273958E+00
(PID.TID 0000.0001) %MON dynstat_eta_sd               =   4.9542657635219E+00
(PID.TID 0000.0001) %MON dynstat_eta_del2             =   2.0730698472583E-01
(PID.TID 0000.0001) %MON dynstat_uvel_max             =   1.0646217999000E-03
(PID.TID 0000.0001) %MON dynstat_uvel_min             =  -1.2143055893725E-03
(PID.TID 0000.0001) %MON dynstat_uvel_mean            =   6.6214749403845E-07
(PID.TID 0000.0001) %MON dynstat_uvel_sd              =   5.2474433644171E-05
(PID.TID 0000.0001) %MON dynstat_uvel_del2            =   2.3286205350991E-07
(PID.TID 0000.0001) %MON dynstat_vvel_max             =   8.5759844035671E-04
(PID.TID 0000.0001) %MON dynstat_vvel_min             =  -1.4722465505699E-03
(PID.TID 0000.0001) %MON dynstat_vvel_mean            =  -2.8970524589600E-04
(PID.TID 0000.0001) %MON dynstat_vvel_sd              =   1.5418154835176E-04
(PID.TID 0000.0001) %MON dynstat_vvel_del2            =   5.3632827327907E-07
(PID.TID 0000.0001) %MON dynstat_wvel_max             =   4.2810428742522E-04
(PID.TID 0000.0001) %MON dynstat_wvel_min             =  -5.0882690742867E-04
(PID.TID 0000.0001) %MON dynstat_wvel_mean            =  -5.9584724699778E-07
(PID.TID 0000.0001) %MON dynstat_wvel_sd              =   5.8090091122490E-05
(PID.TID 0000.0001) %MON dynstat_wvel_del2            =   2.8855223773413E-07
(PID.TID 0000.0001) %MON dynstat_theta_max            =   1.2000000000000E+00
(PID.TID 0000.0001) %MON dynstat_theta_min            =  -1.0000000000000E+00
(PID.TID 0000.0001) %MON dynstat_theta_mean           =   5.6914167354098E-01
(PID.TID 0000.0001) %MON dynstat_theta_sd             =   8.6860343596050E-01
(PID.TID 0000.0001) %MON dynstat_theta_del2           =   3.3652094698160E-06
(PID.TID 0000.0001) %MON dynstat_salt_max             =   3.4700000000000E+01
(PID.TID 0000.0001) %MON dynstat_salt_min             =   3.4000000000000E+01
(PID.TID 0000.0001) %MON dynstat_salt_mean            =   3.4499270790244E+01
(PID.TID 0000.0001) %MON dynstat_salt_sd              =   2.7637345135688E-01
(PID.TID 0000.0001) %MON dynstat_salt_del2            =   1.0708313788268E-06
(PID.TID 0000.0001) %MON advcfl_uvel_max              =   1.2143055893725E-04
(PID.TID 0000.0001) %MON advcfl_vvel_max              =   1.4722465505699E-04
(PID.TID 0000.0001) %MON advcfl_wvel_max              =   2.5441345371433E-03
(PID.TID 0000.0001) %MON advcfl_W_hf_max              =   2.5441345371433E-03
(PID.TID 0000.0001) %MON pe_b_mean                    =  -8.3396527368401E-01
(PID.TID 0000.0001) %MON ke_max                       =   1.0141432451429E-06
(PID.TID 0000.0001) %MON ke_mean                      =   5.4998532994714E-08
(PID.TID 0000.0001) %MON ke_vol                       =   4.2725466222391E+12
(PID.TID 0000.0001) // =======================================================
(PID.TID 0000.0001) // End MONITOR dynamic field statistics
(PID.TID 0000.0001) // =======================================================
(PID.TID 0000.0001) // =======================================================
(PID.TID 0000.0001) // Begin OBCS MONITOR field statistics
(PID.TID 0000.0001) // =======================================================
(PID.TID 0000.0001) %MON obc_N_vVel_max               =  -2.2585243390466E-04
(PID.TID 0000.0001) %MON obc_N_vVel_min               =  -2.2585243390466E-04
(PID.TID 0000.0001) %MON obc_N_vVel_mean              =  -2.2585243390466E-04
(PID.TID 0000.0001) %MON obc_N_vVel_sd                =  -4.4336880832842E-21
(PID.TID 0000.0001) %MON obc_N_vVel_Int               =  -1.4906260637708E+04
(PID.TID 0000.0001) // =======================================================
(PID.TID 0000.0001) // End OBCS MONITOR field statistics
(PID.TID 0000.0001) // =======================================================
 cg2d: Sum(rhs),rhsMax =   4.53251471691104E+00  2.99858753096568E+02
(PID.TID 0000.0001)      cg2d_init_res =   1.60750424082794E-05
(PID.TID 0000.0001)      cg2d_iters(min,last) =      -1      92
(PID.TID 0000.0001)      cg2d_last_res =   9.01888354746496E-12
(PID.TID 0000.0001) // =======================================================
(PID.TID 0000.0001) // Begin MONITOR dynamic field statistics
(PID.TID 0000.0001) // =======================================================
(PID.TID 0000.0001) %MON time_tsnumber                =                    66
(PID.TID 0000.0001) %MON time_secondsf                =   6.6000000000000E+03
(PID.TID 0000.0001) %MON dynstat_eta_max              =   5.7918419692557E+00
(PID.TID 0000.0001) %MON dynstat_eta_min              =  -1.4204660776880E+01
(PID.TID 0000.0001) %MON dynstat_eta_mean             =  -2.5168781692681E+00
(PID.TID 0000.0001) %MON dynstat_eta_sd               =   4.9541662058016E+00
(PID.TID 0000.0001) %MON dynstat_eta_del2             =   2.0730698621680E-01
(PID.TID 0000.0001) %MON dynstat_uvel_max             =   1.0822627359541E-03
(PID.TID 0000.0001) %MON dynstat_uvel_min             =  -1.2415282485785E-03
(PID.TID 0000.0001) %MON dynstat_uvel_mean            =   2.0233078156259E-07
(PID.TID 0000.0001) %MON dynstat_uvel_sd              =   5.2792148468017E-05
(PID.TID 0000.0001) %MON dynstat_uvel_del2            =   2.3823999649802E-07
(PID.TID 0000.0001) %MON dynstat_vvel_max             =   8.5084857032847E-04
(PID.TID 0000.0001) %MON dynstat_vvel_min             =  -1.5072750468237E-03
(PID.TID 0000.0001) %MON dynstat_vvel_mean            =  -3.0177638169395E-04
(PID.TID 0000.0001) %MON dynstat_vvel_sd              =   1.5311548899540E-04
(PID.TID 0000.0001) %MON dynstat_vvel_del2            =   5.3343463284888E-07
(PID.TID 0000.0001) %MON dynstat_wvel_max             =   3.6772064240480E-04
(PID.TID 0000.0001) %MON dynstat_wvel_min             =  -5.0683775165791E-04
(PID.TID 0000.0001) %MON dynstat_wvel_mean            =  -5.3414210612310E-07
(PID.TID 0000.0001) %MON dynstat_wvel_sd              =   5.6786230134903E-05
(PID.TID 0000.0001) %MON dynstat_wvel_del2            =   2.7674610035910E-07
(PID.TID 0000.0001) %MON dynstat_theta_max            =   1.2000000000000E+00
(PID.TID 0000.0001) %MON dynstat_theta_min            =  -1.0000000000000E+00
(PID.TID 0000.0001) %MON dynstat_theta_mean           =   5.6914129725409E-01
(PID.TID 0000.0001) %MON dynstat_theta_sd             =   8.6860335379674E-01
(PID.TID 0000.0001) %MON dynstat_theta_del2           =   3.3510521602583E-06
(PID.TID 0000.0001) %MON dynstat_salt_max             =   3.4700000000000E+01
(PID.TID 0000.0001) %MON dynstat_salt_min             =   3.4000000000000E+01
(PID.TID 0000.0001) %MON dynstat_salt_mean            =   3.4499270649490E+01
(PID.TID 0000.0001) %MON dynstat_salt_sd              =   2.7637341943635E-01
(PID.TID 0000.0001) %MON dynstat_salt_del2            =   1.0662721661073E-06
(PID.TID 0000.0001) %MON advcfl_uvel_max              =   1.2415282485785E-04
(PID.TID 0000.0001) %MON advcfl_vvel_max              =   1.5072750468237E-04
(PID.TID 0000.0001) %MON advcfl_wvel_max              =   2.5341887582895E-03
(PID.TID 0000.0001) %MON advcfl_W_hf_max              =   2.5341887582895E-03
(PID.TID 0000.0001) %MON pe_b_mean                    =  -8.3388939283179E-01
(PID.TID 0000.0001) %MON ke_max                       =   1.0644332274791E-06
(PID.TID 0000.0001) %MON ke_mean                      =   5.8389224841282E-08
(PID.TID 0000.0001) %MON ke_vol                       =   4.2725481258673E+12
(PID.TID 0000.0001) // =======================================================
(PID.TID 0000.0001) // End MONITOR dynamic field statistics
(PID.TID 0000.0001) // =======================================================
(PID.TID 0000.0001) // =======================================================
(PID.TID 0000.0001) // Begin OBCS MONITOR field statistics
(PID.TID 0000.0001) // =======================================================
(PID.TID 0000.0001) %MON obc_N_vVel_max               =  -2.4315230049205E-04
(PID.TID 0000.0001) %MON obc_N_vVel_min               =  -2.4315230049205E-04
(PID.TID 0000.0001) %MON obc_N_vVel_mean              =  -2.4315230049205E-04
(PID.TID 0000.0001) %MON obc_N_vVel_sd                =  -1.6345088904048E-21
(PID.TID 0000.0001) %MON obc_N_vVel_Int               =  -1.6048051832476E+04
(PID.TID 0000.0001) // =======================================================
(PID.TID 0000.0001) // End OBCS MONITOR field statistics
(PID.TID 0000.0001) // =======================================================
 cg2d: Sum(rhs),rhsMax =   4.53200263411845E+00  2.99858946534114E+02
(PID.TID 0000.0001)      cg2d_init_res =   1.56992661822719E-05
(PID.TID 0000.0001)      cg2d_iters(min,last) =      -1      90
(PID.TID 0000.0001)      cg2d_last_res =   9.88667651471803E-12
(PID.TID 0000.0001) // =======================================================
(PID.TID 0000.0001) // Begin MONITOR dynamic field statistics
(PID.TID 0000.0001) // =======================================================
(PID.TID 0000.0001) %MON time_tsnumber                =                    67
(PID.TID 0000.0001) %MON time_secondsf                =   6.7000000000000E+03
(PID.TID 0000.0001) %MON dynstat_eta_max              =   5.7920012173212E+00
(PID.TID 0000.0001) %MON dynstat_eta_min              =  -1.4203952957077E+01
(PID.TID 0000.0001) %MON dynstat_eta_mean             =  -2.5165954362159E+00
(PID.TID 0000.0001) %MON dynstat_eta_sd               =   4.9540704018513E+00
(PID.TID 0000.0001) %MON dynstat_eta_del2             =   2.0730698763504E-01
(PID.TID 0000.0001) %MON dynstat_uvel_max             =   1.0994134435585E-03
(PID.TID 0000.0001) %MON dynstat_uvel_min             =  -1.2678987743531E-03
(PID.TID 0000.0001) %MON dynstat_uvel_mean            =  -2.1506713528988E-07
(PID.TID 0000.0001) %MON dynstat_uvel_sd              =   5.3063442942165E-05
(PID.TID 0000.0001) %MON dynstat_uvel_del2            =   2.4349512998428E-07
(PID.TID 0000.0001) %MON dynstat_vvel_max             =   8.6869622549202E-04
(PID.TID 0000.0001) %MON dynstat_vvel_min             =  -1.5287612304058E-03
(PID.TID 0000.0001) %MON dynstat_vvel_mean            =  -3.0468093954878E-04
(PID.TID 0000.0001) %MON dynstat_vvel_sd              =   1.5121505565905E-04
(PID.TID 0000.0001) %MON dynstat_vvel_del2            =   5.3527451958940E-07
(PID.TID 0000.0001) %MON dynstat_wvel_max             =   3.3905537417999E-04
(PID.TID 0000.0001) %MON dynstat_wvel_min             =  -4.9571770906462E-04
(PID.TID 0000.0001) %MON dynstat_wvel_mean            =  -4.6227789598992E-07
(PID.TID 0000.0001) %MON dynstat_wvel_sd              =   5.5586436106665E-05
(PID.TID 0000.0001) %MON dynstat_wvel_del2            =   2.6849813672142E-07
(PID.TID 0000.0001) %MON dynstat_theta_max            =   1.2000000000000E+00
(PID.TID 0000.0001) %MON dynstat_theta_min            =  -1.0000000000000E+00
(PID.TID 0000.0001) %MON dynstat_theta_mean           =   5.6914091837963E-01
(PID.TID 0000.0001) %MON dynstat_theta_sd             =   8.6860327090128E-01
(PID.TID 0000.0001) %MON dynstat_theta_del2           =   3.3347072977994E-06
(PID.TID 0000.0001) %MON dynstat_salt_max             =   3.4700000000000E+01
(PID.TID 0000.0001) %MON dynstat_salt_min             =   3.4000000000000E+01
(PID.TID 0000.0001) %MON dynstat_salt_mean            =   3.4499270507912E+01
(PID.TID 0000.0001) %MON dynstat_salt_sd              =   2.7637338728229E-01
(PID.TID 0000.0001) %MON dynstat_salt_del2            =   1.0610184957887E-06
(PID.TID 0000.0001) %MON advcfl_uvel_max              =   1.2678987743531E-04
(PID.TID 0000.0001) %MON advcfl_vvel_max              =   1.5287612304058E-04
(PID.TID 0000.0001) %MON advcfl_wvel_max              =   2.4785885453231E-03
(PID.TID 0000.0001) %MON advcfl_W_hf_max              =   2.4785885453231E-03
(PID.TID 0000.0001) %MON pe_b_mean                    =  -8.3381327445759E-01
(PID.TID 0000.0001) %MON ke_max                       =   1.1089575228013E-06
(PID.TID 0000.0001) %MON ke_mean                      =   5.8976942577487E-08
(PID.TID 0000.0001) %MON ke_vol                       =   4.2725497436745E+12
(PID.TID 0000.0001) // =======================================================
(PID.TID 0000.0001) // End MONITOR dynamic field statistics
(PID.TID 0000.0001) // =======================================================
(PID.TID 0000.0001) // =======================================================
(PID.TID 0000.0001) // Begin OBCS MONITOR field statistics
(PID.TID 0000.0001) // =======================================================
(PID.TID 0000.0001) %MON obc_N_vVel_max               =  -2.5248974164937E-04
(PID.TID 0000.0001) %MON obc_N_vVel_min               =  -2.5248974164938E-04
(PID.TID 0000.0001) %MON obc_N_vVel_mean              =  -2.5248974164938E-04
(PID.TID 0000.0001) %MON obc_N_vVel_sd                =  -4.0631111688605E-21
(PID.TID 0000.0001) %MON obc_N_vVel_Int               =  -1.6664322948859E+04
(PID.TID 0000.0001) // =======================================================
(PID.TID 0000.0001) // End OBCS MONITOR field statistics
(PID.TID 0000.0001) // =======================================================
 cg2d: Sum(rhs),rhsMax =   4.53148718672509E+00  2.99859144237162E+02
(PID.TID 0000.0001)      cg2d_init_res =   1.51756210646188E-05
(PID.TID 0000.0001)      cg2d_iters(min,last) =      -1      85
(PID.TID 0000.0001)      cg2d_last_res =   9.86925632712740E-12
(PID.TID 0000.0001) // =======================================================
(PID.TID 0000.0001) // Begin MONITOR dynamic field statistics
(PID.TID 0000.0001) // =======================================================
(PID.TID 0000.0001) %MON time_tsnumber                =                    68
(PID.TID 0000.0001) %MON time_secondsf                =   6.8000000000000E+03
(PID.TID 0000.0001) %MON dynstat_eta_max              =   5.7921685646582E+00
(PID.TID 0000.0001) %MON dynstat_eta_min              =  -1.4203271586608E+01
(PID.TID 0000.0001) %MON dynstat_eta_mean             =  -2.5163108702464E+00
(PID.TID 0000.0001) %MON dynstat_eta_sd               =   4.9539807646635E+00
(PID.TID 0000.0001) %MON dynstat_eta_del2             =   2.0730698897161E-01
(PID.TID 0000.0001) %MON dynstat_uvel_max             =   1.1160877092760E-03
(PID.TID 0000.0001) %MON dynstat_uvel_min             =  -1.2934164064209E-03
(PID.TID 0000.0001) %MON dynstat_uvel_mean            =  -5.8826860305865E-07
(PID.TID 0000.0001) %MON dynstat_uvel_sd              =   5.3299080949773E-05
(PID.TID 0000.0001) %MON dynstat_uvel_del2            =   2.4862916470329E-07
(PID.TID 0000.0001) %MON dynstat_vvel_max             =   9.0359120899919E-04
(PID.TID 0000.0001) %MON dynstat_vvel_min             =  -1.5375428188786E-03
(PID.TID 0000.0001) %MON dynstat_vvel_mean            =  -2.9893182363569E-04
(PID.TID 0000.0001) %MON dynstat_vvel_sd              =   1.4870112638092E-04
(PID.TID 0000.0001) %MON dynstat_vvel_del2            =   5.4189472133885E-07
(PID.TID 0000.0001) %MON dynstat_wvel_max             =   3.9464625931635E-04
(PID.TID 0000.0001) %MON dynstat_wvel_min             =  -4.7544378531592E-04
(PID.TID 0000.0001) %MON dynstat_wvel_mean            =  -3.8271945598074E-07
(PID.TID 0000.0001) %MON dynstat_wvel_sd              =   5.4624732160000E-05
(PID.TID 0000.0001) %MON dynstat_wvel_del2            =   2.6498614916201E-07
(PID.TID 0000.0001) %MON dynstat_theta_max            =   1.2000000000000E+00
(PID.TID 0000.0001) %MON dynstat_theta_min            =  -1.0000000000000E+00
(PID.TID 0000.0001) %MON dynstat_theta_mean           =   5.6914054037403E-01
(PID.TID 0000.0001) %MON dynstat_theta_sd             =   8.6860318596584E-01
(PID.TID 0000.0001) %MON dynstat_theta_del2           =   3.3158087984411E-06
(PID.TID 0000.0001) %MON dynstat_salt_max             =   3.4700000000000E+01
(PID.TID 0000.0001) %MON dynstat_salt_min             =   3.4000000000000E+01
(PID.TID 0000.0001) %MON dynstat_salt_mean            =   3.4499270366609E+01
(PID.TID 0000.0001) %MON dynstat_salt_sd              =   2.7637335447830E-01
(PID.TID 0000.0001) %MON dynstat_salt_del2            =   1.0549540063765E-06
(PID.TID 0000.0001) %MON advcfl_uvel_max              =   1.2934164064209E-04
(PID.TID 0000.0001) %MON advcfl_vvel_max              =   1.5375428188786E-04
(PID.TID 0000.0001) %MON advcfl_wvel_max              =   2.3772189265796E-03
(PID.TID 0000.0001) %MON advcfl_W_hf_max              =   2.3772189265796E-03
(PID.TID 0000.0001) %MON pe_b_mean                    =  -8.3373905776940E-01
(PID.TID 0000.0001) %MON ke_max                       =   1.1477712300308E-06
(PID.TID 0000.0001) %MON ke_mean                      =   5.6874227282679E-08
(PID.TID 0000.0001) %MON ke_vol                       =   4.2725514231089E+12
(PID.TID 0000.0001) // =======================================================
(PID.TID 0000.0001) // End MONITOR dynamic field statistics
(PID.TID 0000.0001) // =======================================================
(PID.TID 0000.0001) // =======================================================
(PID.TID 0000.0001) // Begin OBCS MONITOR field statistics
(PID.TID 0000.0001) // =======================================================
(PID.TID 0000.0001) %MON obc_N_vVel_max               =  -2.5413937625797E-04
(PID.TID 0000.0001) %MON obc_N_vVel_min               =  -2.5413937625798E-04
(PID.TID 0000.0001) %MON obc_N_vVel_mean              =  -2.5413937625798E-04
(PID.TID 0000.0001) %MON obc_N_vVel_sd                =  -3.0837293235977E-21
(PID.TID 0000.0001) %MON obc_N_vVel_Int               =  -1.6773198833027E+04
(PID.TID 0000.0001) // =======================================================
(PID.TID 0000.0001) // End OBCS MONITOR field statistics
(PID.TID 0000.0001) // =======================================================
 cg2d: Sum(rhs),rhsMax =   4.53098289060669E+00  2.99859342609739E+02
(PID.TID 0000.0001)      cg2d_init_res =   1.45430295462287E-05
(PID.TID 0000.0001)      cg2d_iters(min,last) =      -1      91
(PID.TID 0000.0001)      cg2d_last_res =   9.73113753530488E-12
(PID.TID 0000.0001) // =======================================================
(PID.TID 0000.0001) // Begin MONITOR dynamic field statistics
(PID.TID 0000.0001) // =======================================================
(PID.TID 0000.0001) %MON time_tsnumber                =                    69
(PID.TID 0000.0001) %MON time_secondsf                =   6.9000000000000E+03
(PID.TID 0000.0001) %MON dynstat_eta_max              =   5.7923382152381E+00
(PID.TID 0000.0001) %MON dynstat_eta_min              =  -1.4202633363502E+01
(PID.TID 0000.0001) %MON dynstat_eta_mean             =  -2.5160325017654E+00
(PID.TID 0000.0001) %MON dynstat_eta_sd               =   4.9538993860757E+00
(PID.TID 0000.0001) %MON dynstat_eta_del2             =   2.0730699021830E-01
(PID.TID 0000.0001) %MON dynstat_uvel_max             =   1.1322935703184E-03
(PID.TID 0000.0001) %MON dynstat_uvel_min             =  -1.3180788019547E-03
(PID.TID 0000.0001) %MON dynstat_uvel_mean            =  -9.1782368937995E-07
(PID.TID 0000.0001) %MON dynstat_uvel_sd              =   5.3512543746819E-05
(PID.TID 0000.0001) %MON dynstat_uvel_del2            =   2.5364344399032E-07
(PID.TID 0000.0001) %MON dynstat_vvel_max             =   9.4198649176569E-04
(PID.TID 0000.0001) %MON dynstat_vvel_min             =  -1.5347190882502E-03
(PID.TID 0000.0001) %MON dynstat_vvel_mean            =  -2.8523768993822E-04
(PID.TID 0000.0001) %MON dynstat_vvel_sd              =   1.4584081451779E-04
(PID.TID 0000.0001) %MON dynstat_vvel_del2            =   5.5265938343558E-07
(PID.TID 0000.0001) %MON dynstat_wvel_max             =   4.4172663864588E-04
(PID.TID 0000.0001) %MON dynstat_wvel_min             =  -4.4619974586139E-04
(PID.TID 0000.0001) %MON dynstat_wvel_mean            =  -2.9797047369596E-07
(PID.TID 0000.0001) %MON dynstat_wvel_sd              =   5.4001236084201E-05
(PID.TID 0000.0001) %MON dynstat_wvel_del2            =   2.6660500207733E-07
(PID.TID 0000.0001) %MON dynstat_theta_max            =   1.2000000000000E+00
(PID.TID 0000.0001) %MON dynstat_theta_min            =  -1.0000000000000E+00
(PID.TID 0000.0001) %MON dynstat_theta_mean           =   5.6914016644495E-01
(PID.TID 0000.0001) %MON dynstat_theta_sd             =   8.6860309788234E-01
(PID.TID 0000.0001) %MON dynstat_theta_del2           =   3.2943247189641E-06
(PID.TID 0000.0001) %MON dynstat_salt_max             =   3.4700000000000E+01
(PID.TID 0000.0001) %MON dynstat_salt_min             =   3.4000000000000E+01
(PID.TID 0000.0001) %MON dynstat_salt_mean            =   3.4499270226603E+01
(PID.TID 0000.0001) %MON dynstat_salt_sd              =   2.7637332067259E-01
(PID.TID 0000.0001) %MON dynstat_salt_del2            =   1.0480689517286E-06
(PID.TID 0000.0001) %MON advcfl_uvel_max              =   1.3180788019547E-04
(PID.TID 0000.0001) %MON advcfl_vvel_max              =   1.5347190882502E-04
(PID.TID 0000.0001) %MON advcfl_wvel_max              =   2.2309987293070E-03
(PID.TID 0000.0001) %MON advcfl_W_hf_max              =   2.2309987293070E-03
(PID.TID 0000.0001) %MON pe_b_mean                    =  -8.3366869472768E-01
(PID.TID 0000.0001) %MON ke_max                       =   1.1815386217985E-06
(PID.TID 0000.0001) %MON ke_mean                      =   5.2475773626941E-08
(PID.TID 0000.0001) %MON ke_vol                       =   4.2725531134307E+12
(PID.TID 0000.0001) // =======================================================
(PID.TID 0000.0001) // End MONITOR dynamic field statistics
(PID.TID 0000.0001) // =======================================================
(PID.TID 0000.0001) // =======================================================
(PID.TID 0000.0001) // Begin OBCS MONITOR field statistics
(PID.TID 0000.0001) // =======================================================
(PID.TID 0000.0001) %MON obc_N_vVel_max               =  -2.4856164539963E-04
(PID.TID 0000.0001) %MON obc_N_vVel_min               =  -2.4856164539964E-04
(PID.TID 0000.0001) %MON obc_N_vVel_mean              =  -2.4856164539964E-04
(PID.TID 0000.0001) %MON obc_N_vVel_sd                =  -1.4823076576950E-21
(PID.TID 0000.0001) %MON obc_N_vVel_Int               =  -1.6405068596376E+04
(PID.TID 0000.0001) // =======================================================
(PID.TID 0000.0001) // End OBCS MONITOR field statistics
(PID.TID 0000.0001) // =======================================================
 cg2d: Sum(rhs),rhsMax =   4.53050301742710E+00  2.99859538303619E+02
(PID.TID 0000.0001)      cg2d_init_res =   1.38462752045726E-05
(PID.TID 0000.0001)      cg2d_iters(min,last) =      -1      91
(PID.TID 0000.0001)      cg2d_last_res =   9.73542155203834E-12
(PID.TID 0000.0001) // =======================================================
(PID.TID 0000.0001) // Begin MONITOR dynamic field statistics
(PID.TID 0000.0001) // =======================================================
(PID.TID 0000.0001) %MON time_tsnumber                =                    70
(PID.TID 0000.0001) %MON time_secondsf                =   7.0000000000000E+03
(PID.TID 0000.0001) %MON dynstat_eta_max              =   5.7925047281671E+00
(PID.TID 0000.0001) %MON dynstat_eta_min              =  -1.4202052943092E+01
(PID.TID 0000.0001) %MON dynstat_eta_mean             =  -2.5157676723867E+00
(PID.TID 0000.0001) %MON dynstat_eta_sd               =   4.9538280043258E+00
(PID.TID 0000.0001) %MON dynstat_eta_del2             =   2.0730699137078E-01
(PID.TID 0000.0001) %MON dynstat_uvel_max             =   1.1480343859471E-03
(PID.TID 0000.0001) %MON dynstat_uvel_min             =  -1.3418817212267E-03
(PID.TID 0000.0001) %MON dynstat_uvel_mean            =  -1.2054726487471E-06
(PID.TID 0000.0001) %MON dynstat_uvel_sd              =   5.3718707913235E-05
(PID.TID 0000.0001) %MON dynstat_uvel_del2            =   2.5853910644071E-07
(PID.TID 0000.0001) %MON dynstat_vvel_max             =   9.8338160958100E-04
(PID.TID 0000.0001) %MON dynstat_vvel_min             =  -1.5216059771355E-03
(PID.TID 0000.0001) %MON dynstat_vvel_mean            =  -2.6447104098604E-04
(PID.TID 0000.0001) %MON dynstat_vvel_sd              =   1.4292004640961E-04
(PID.TID 0000.0001) %MON dynstat_vvel_del2            =   5.6639849379327E-07
(PID.TID 0000.0001) %MON dynstat_wvel_max             =   4.8000722414005E-04
(PID.TID 0000.0001) %MON dynstat_wvel_min             =  -4.0838154426095E-04
(PID.TID 0000.0001) %MON dynstat_wvel_mean            =  -2.1052161640014E-07
(PID.TID 0000.0001) %MON dynstat_wvel_sd              =   5.3766055349726E-05
(PID.TID 0000.0001) %MON dynstat_wvel_del2            =   2.7285141736418E-07
(PID.TID 0000.0001) %MON dynstat_theta_max            =   1.2000000000000E+00
(PID.TID 0000.0001) %MON dynstat_theta_min            =  -1.0000000000000E+00
(PID.TID 0000.0001) %MON dynstat_theta_mean           =   5.6913979947843E-01
(PID.TID 0000.0001) %MON dynstat_theta_sd             =   8.6860300566992E-01
(PID.TID 0000.0001) %MON dynstat_theta_del2           =   3.2705493129297E-06
(PID.TID 0000.0001) %MON dynstat_salt_max             =   3.4700000000000E+01
(PID.TID 0000.0001) %MON dynstat_salt_min             =   3.4000000000000E+01
(PID.TID 0000.0001) %MON dynstat_salt_mean            =   3.4499270088810E+01
(PID.TID 0000.0001) %MON dynstat_salt_sd              =   2.7637328555351E-01
(PID.TID 0000.0001) %MON dynstat_salt_del2            =   1.0404571659000E-06
(PID.TID 0000.0001) %MON advcfl_uvel_max              =   1.3418817212267E-04
(PID.TID 0000.0001) %MON advcfl_vvel_max              =   1.5216059771355E-04
(PID.TID 0000.0001) %MON advcfl_wvel_max              =   2.4000361207003E-03
(PID.TID 0000.0001) %MON advcfl_W_hf_max              =   2.4000361207003E-03
(PID.TID 0000.0001) %MON pe_b_mean                    =  -8.3360391060390E-01
(PID.TID 0000.0001) %MON ke_max                       =   1.2113543542028E-06
(PID.TID 0000.0001) %MON ke_mean                      =   4.6380760822690E-08
(PID.TID 0000.0001) %MON ke_vol                       =   4.2725547669395E+12
(PID.TID 0000.0001) // =======================================================
(PID.TID 0000.0001) // End MONITOR dynamic field statistics
(PID.TID 0000.0001) // =======================================================
(PID.TID 0000.0001) // =======================================================
(PID.TID 0000.0001) // Begin OBCS MONITOR field statistics
(PID.TID 0000.0001) // =======================================================
(PID.TID 0000.0001) %MON obc_N_vVel_max               =  -2.3637646257421E-04
(PID.TID 0000.0001) %MON obc_N_vVel_min               =  -2.3637646257421E-04
(PID.TID 0000.0001) %MON obc_N_vVel_mean              =  -2.3637646257421E-04
(PID.TID 0000.0001) %MON obc_N_vVel_sd                =  -1.2308447514789E-21
(PID.TID 0000.0001) %MON obc_N_vVel_Int               =  -1.5600846529898E+04
(PID.TID 0000.0001) // =======================================================
(PID.TID 0000.0001) // End OBCS MONITOR field statistics
(PID.TID 0000.0001) // =======================================================
 cg2d: Sum(rhs),rhsMax =   4.53005933046339E+00  2.99859728290998E+02
(PID.TID 0000.0001)      cg2d_init_res =   1.31318616212439E-05
(PID.TID 0000.0001)      cg2d_iters(min,last) =      -1      91
(PID.TID 0000.0001)      cg2d_last_res =   9.00592718940869E-12
(PID.TID 0000.0001) // =======================================================
(PID.TID 0000.0001) // Begin MONITOR dynamic field statistics
(PID.TID 0000.0001) // =======================================================
(PID.TID 0000.0001) %MON time_tsnumber                =                    71
(PID.TID 0000.0001) %MON time_secondsf                =   7.1000000000000E+03
(PID.TID 0000.0001) %MON dynstat_eta_max              =   5.7926631137662E+00
(PID.TID 0000.0001) %MON dynstat_eta_min              =  -1.4201542619531E+01
(PID.TID 0000.0001) %MON dynstat_eta_mean             =  -2.5155228888423E+00
(PID.TID 0000.0001) %MON dynstat_eta_sd               =   4.9537679826793E+00
(PID.TID 0000.0001) %MON dynstat_eta_del2             =   2.0730699242780E-01
(PID.TID 0000.0001) %MON dynstat_uvel_max             =   1.1633101732258E-03
(PID.TID 0000.0001) %MON dynstat_uvel_min             =  -1.3648190421875E-03
(PID.TID 0000.0001) %MON dynstat_uvel_mean            =  -1.4531648999472E-06
(PID.TID 0000.0001) %MON dynstat_uvel_sd              =   5.3932467165240E-05
(PID.TID 0000.0001) %MON dynstat_uvel_del2            =   2.6331721623145E-07
(PID.TID 0000.0001) %MON dynstat_vvel_max             =   1.0272131477542E-03
(PID.TID 0000.0001) %MON dynstat_vvel_min             =  -1.5014078205162E-03
(PID.TID 0000.0001) %MON dynstat_vvel_mean            =  -2.3763440439445E-04
(PID.TID 0000.0001) %MON dynstat_vvel_sd              =   1.4021338164681E-04
(PID.TID 0000.0001) %MON dynstat_vvel_del2            =   5.8164149176755E-07
(PID.TID 0000.0001) %MON dynstat_wvel_max             =   5.0733719462532E-04
(PID.TID 0000.0001) %MON dynstat_wvel_min             =  -3.6268345761885E-04
(PID.TID 0000.0001) %MON dynstat_wvel_mean            =  -1.2279784868945E-07
(PID.TID 0000.0001) %MON dynstat_wvel_sd              =   5.3911893711685E-05
(PID.TID 0000.0001) %MON dynstat_wvel_del2            =   2.8250284669087E-07
(PID.TID 0000.0001) %MON dynstat_theta_max            =   1.2000000000000E+00
(PID.TID 0000.0001) %MON dynstat_theta_min            =  -1.0000000000000E+00
(PID.TID 0000.0001) %MON dynstat_theta_mean           =   5.6913944198107E-01
(PID.TID 0000.0001) %MON dynstat_theta_sd             =   8.6860290828844E-01
(PID.TID 0000.0001) %MON dynstat_theta_del2           =   3.2450585596220E-06
(PID.TID 0000.0001) %MON dynstat_salt_max             =   3.4700000000000E+01
(PID.TID 0000.0001) %MON dynstat_salt_min             =   3.4000000000000E+01
(PID.TID 0000.0001) %MON dynstat_salt_mean            =   3.4499269954030E+01
(PID.TID 0000.0001) %MON dynstat_salt_sd              =   2.7637324879068E-01
(PID.TID 0000.0001) %MON dynstat_salt_del2            =   1.0323021363542E-06
(PID.TID 0000.0001) %MON advcfl_uvel_max              =   1.3648190421875E-04
(PID.TID 0000.0001) %MON advcfl_vvel_max              =   1.5014078205162E-04
(PID.TID 0000.0001) %MON advcfl_wvel_max              =   2.5366859731266E-03
(PID.TID 0000.0001) %MON advcfl_W_hf_max              =   2.5366859731266E-03
(PID.TID 0000.0001) %MON pe_b_mean                    =  -8.3354617303121E-01
(PID.TID 0000.0001) %MON ke_max                       =   1.2385445159140E-06
(PID.TID 0000.0001) %MON ke_mean                      =   3.9304084349831E-08
(PID.TID 0000.0001) %MON ke_vol                       =   4.2725563400260E+12
(PID.TID 0000.0001) // =======================================================
(PID.TID 0000.0001) // End MONITOR dynamic field statistics
(PID.TID 0000.0001) // =======================================================
(PID.TID 0000.0001) // =======================================================
(PID.TID 0000.0001) // Begin OBCS MONITOR field statistics
(PID.TID 0000.0001) // =======================================================
(PID.TID 0000.0001) %MON obc_N_vVel_max               =  -2.1833522084239E-04
(PID.TID 0000.0001) %MON obc_N_vVel_min               =  -2.1833522084240E-04
(PID.TID 0000.0001) %MON obc_N_vVel_mean              =  -2.1833522084239E-04
(PID.TID 0000.0001) %MON obc_N_vVel_sd                =   6.5786084887896E-11
(PID.TID 0000.0001) %MON obc_N_vVel_Int               =  -1.4410124575598E+04
(PID.TID 0000.0001) // =======================================================
(PID.TID 0000.0001) // End OBCS MONITOR field statistics
(PID.TID 0000.0001) // =======================================================
 cg2d: Sum(rhs),rhsMax =   4.52966187819861E+00  2.99859909918015E+02
(PID.TID 0000.0001)      cg2d_init_res =   1.24456919785605E-05
(PID.TID 0000.0001)      cg2d_iters(min,last) =      -1      90
(PID.TID 0000.0001)      cg2d_last_res =   9.24644079525431E-12
(PID.TID 0000.0001) // =======================================================
(PID.TID 0000.0001) // Begin MONITOR dynamic field statistics
(PID.TID 0000.0001) // =======================================================
(PID.TID 0000.0001) %MON time_tsnumber                =                    72
(PID.TID 0000.0001) %MON time_secondsf                =   7.2000000000000E+03
(PID.TID 0000.0001) %MON dynstat_eta_max              =   5.7928089089117E+00
(PID.TID 0000.0001) %MON dynstat_eta_min              =  -1.4201112097106E+01
(PID.TID 0000.0001) %MON dynstat_eta_mean             =  -2.5153037088069E+00
(PID.TID 0000.0001) %MON dynstat_eta_sd               =   4.9537202987872E+00
(PID.TID 0000.0001) %MON dynstat_eta_del2             =   2.0730699339096E-01
(PID.TID 0000.0001) %MON dynstat_uvel_max             =   1.1781187240558E-03
(PID.TID 0000.0001) %MON dynstat_uvel_min             =  -1.3868826995722E-03
(PID.TID 0000.0001) %MON dynstat_uvel_mean            =  -1.6622987435495E-06
(PID.TID 0000.0001) %MON dynstat_uvel_sd              =   5.4167450243361E-05
(PID.TID 0000.0001) %MON dynstat_uvel_del2            =   2.6797887112296E-07
(PID.TID 0000.0001) %MON dynstat_vvel_max             =   1.0775481726295E-03
(PID.TID 0000.0001) %MON dynstat_vvel_min             =  -1.4738590534815E-03
(PID.TID 0000.0001) %MON dynstat_vvel_mean            =  -2.0582557665923E-04
(PID.TID 0000.0001) %MON dynstat_vvel_sd              =   1.3795314364633E-04
(PID.TID 0000.0001) %MON dynstat_vvel_del2            =   5.9685592296975E-07
(PID.TID 0000.0001) %MON dynstat_wvel_max             =   5.2316230311217E-04
(PID.TID 0000.0001) %MON dynstat_wvel_min             =  -3.7723812999734E-04
(PID.TID 0000.0001) %MON dynstat_wvel_mean            =  -3.7104908863368E-08
(PID.TID 0000.0001) %MON dynstat_wvel_sd              =   5.4378070917941E-05
(PID.TID 0000.0001) %MON dynstat_wvel_del2            =   2.9397379477910E-07
(PID.TID 0000.0001) %MON dynstat_theta_max            =   1.2000000000000E+00
(PID.TID 0000.0001) %MON dynstat_theta_min            =  -1.0000000000000E+00
(PID.TID 0000.0001) %MON dynstat_theta_mean           =   5.6913909603849E-01
(PID.TID 0000.0001) %MON dynstat_theta_sd             =   8.6860280474034E-01
(PID.TID 0000.0001) %MON dynstat_theta_del2           =   3.2186682000805E-06
(PID.TID 0000.0001) %MON dynstat_salt_max             =   3.4700000000000E+01
(PID.TID 0000.0001) %MON dynstat_salt_min             =   3.4000000000000E+01
(PID.TID 0000.0001) %MON dynstat_salt_mean            =   3.4499269822926E+01
(PID.TID 0000.0001) %MON dynstat_salt_sd              =   2.7637321006728E-01
(PID.TID 0000.0001) %MON dynstat_salt_del2            =   1.0238635645625E-06
(PID.TID 0000.0001) %MON advcfl_uvel_max              =   1.3868826995722E-04
(PID.TID 0000.0001) %MON advcfl_vvel_max              =   1.4738590534815E-04
(PID.TID 0000.0001) %MON advcfl_wvel_max              =   2.6158115155608E-03
(PID.TID 0000.0001) %MON advcfl_W_hf_max              =   2.6158115155608E-03
(PID.TID 0000.0001) %MON pe_b_mean                    =  -8.3349666976947E-01
(PID.TID 0000.0001) %MON ke_max                       =   1.2644704318150E-06
(PID.TID 0000.0001) %MON ke_mean                      =   3.1986977004835E-08
(PID.TID 0000.0001) %MON ke_vol                       =   4.2725577940403E+12
(PID.TID 0000.0001) // =======================================================
(PID.TID 0000.0001) // End MONITOR dynamic field statistics
(PID.TID 0000.0001) // =======================================================
(PID.TID 0000.0001) // =======================================================
(PID.TID 0000.0001) // Begin OBCS MONITOR field statistics
(PID.TID 0000.0001) // =======================================================
(PID.TID 0000.0001) %MON obc_N_vVel_max               =  -1.9529207177009E-04
(PID.TID 0000.0001) %MON obc_N_vVel_min               =  -1.9529207177010E-04
(PID.TID 0000.0001) %MON obc_N_vVel_mean              =  -1.9529207177010E-04
(PID.TID 0000.0001) %MON obc_N_vVel_sd                =  -1.2837843106823E-21
(PID.TID 0000.0001) %MON obc_N_vVel_Int               =  -1.2889276736826E+04
(PID.TID 0000.0001) // =======================================================
(PID.TID 0000.0001) // End OBCS MONITOR field statistics
(PID.TID 0000.0001) // =======================================================
 cg2d: Sum(rhs),rhsMax =   4.52325541169329E+00  2.99860080943680E+02
(PID.TID 0000.0001)      cg2d_init_res =   1.93611931874553E-05
(PID.TID 0000.0001)      cg2d_iters(min,last) =      -1      95
(PID.TID 0000.0001)      cg2d_last_res =   8.09304458084963E-12
(PID.TID 0000.0001) // =======================================================
(PID.TID 0000.0001) // Begin MONITOR dynamic field statistics
(PID.TID 0000.0001) // =======================================================
(PID.TID 0000.0001) %MON time_tsnumber                =                    73
(PID.TID 0000.0001) %MON time_secondsf                =   7.3000000000000E+03
(PID.TID 0000.0001) %MON dynstat_eta_max              =   5.7987172590504E+00
(PID.TID 0000.0001) %MON dynstat_eta_min              =  -1.4199742992966E+01
(PID.TID 0000.0001) %MON dynstat_eta_mean             =  -2.5117476553320E+00
(PID.TID 0000.0001) %MON dynstat_eta_sd               =   4.9525383586764E+00
(PID.TID 0000.0001) %MON dynstat_eta_del2             =   2.0713995459446E-01
(PID.TID 0000.0001) %MON dynstat_uvel_max             =   1.1924567200712E-03
(PID.TID 0000.0001) %MON dynstat_uvel_min             =  -1.4080627515547E-03
(PID.TID 0000.0001) %MON dynstat_uvel_mean            =  -1.8329944034188E-06
(PID.TID 0000.0001) %MON dynstat_uvel_sd              =   5.4433723887927E-05
(PID.TID 0000.0001) %MON dynstat_uvel_del2            =   2.7252695073574E-07
(PID.TID 0000.0001) %MON dynstat_vvel_max             =   1.1297951050686E-03
(PID.TID 0000.0001) %MON dynstat_vvel_min             =  -1.4401874704912E-03
(PID.TID 0000.0001) %MON dynstat_vvel_mean            =  -1.7019955003187E-04
(PID.TID 0000.0001) %MON dynstat_vvel_sd              =   1.3630399753689E-04
(PID.TID 0000.0001) %MON dynstat_vvel_del2            =   6.1064495596118E-07
(PID.TID 0000.0001) %MON dynstat_wvel_max             =   5.2720743120831E-04
(PID.TID 0000.0001) %MON dynstat_wvel_min             =  -3.9798642290906E-04
(PID.TID 0000.0001) %MON dynstat_wvel_mean            =   4.4459007988538E-08
(PID.TID 0000.0001) %MON dynstat_wvel_sd              =   5.5064885728074E-05
(PID.TID 0000.0001) %MON dynstat_wvel_del2            =   3.0566202123381E-07
(PID.TID 0000.0001) %MON dynstat_theta_max            =   1.2000000000000E+00
(PID.TID 0000.0001) %MON dynstat_theta_min            =  -1.0000000000000E+00
(PID.TID 0000.0001) %MON dynstat_theta_mean           =   5.6913876329150E-01
(PID.TID 0000.0001) %MON dynstat_theta_sd             =   8.6860269486465E-01
(PID.TID 0000.0001) %MON dynstat_theta_del2           =   3.1922958467884E-06
(PID.TID 0000.0001) %MON dynstat_salt_max             =   3.4700000000000E+01
(PID.TID 0000.0001) %MON dynstat_salt_min             =   3.4000000000000E+01
(PID.TID 0000.0001) %MON dynstat_salt_mean            =   3.4499269696020E+01
(PID.TID 0000.0001) %MON dynstat_salt_sd              =   2.7637316933278E-01
(PID.TID 0000.0001) %MON dynstat_salt_del2            =   1.0154333467301E-06
(PID.TID 0000.0001) %MON advcfl_uvel_max              =   1.4080627515547E-04
(PID.TID 0000.0001) %MON advcfl_vvel_max              =   1.4401874704912E-04
(PID.TID 0000.0001) %MON advcfl_wvel_max              =   2.6360371560415E-03
(PID.TID 0000.0001) %MON advcfl_W_hf_max              =   2.6360371560415E-03
(PID.TID 0000.0001) %MON pe_b_mean                    =  -8.3207629958773E-01
(PID.TID 0000.0001) %MON ke_max                       =   1.2903552344264E-06
(PID.TID 0000.0001) %MON ke_mean                      =   2.5115828126896E-08
(PID.TID 0000.0001) %MON ke_vol                       =   4.2725590959697E+12
(PID.TID 0000.0001) // =======================================================
(PID.TID 0000.0001) // End MONITOR dynamic field statistics
(PID.TID 0000.0001) // =======================================================
(PID.TID 0000.0001) // =======================================================
(PID.TID 0000.0001) // Begin OBCS MONITOR field statistics
(PID.TID 0000.0001) // =======================================================
(PID.TID 0000.0001) %MON obc_N_vVel_max               =  -1.6817514232880E-04
(PID.TID 0000.0001) %MON obc_N_vVel_min               =  -1.6817514232880E-04
(PID.TID 0000.0001) %MON obc_N_vVel_mean              =  -1.6817514232880E-04
(PID.TID 0000.0001) %MON obc_N_vVel_sd                =  -1.1812139147257E-21
(PID.TID 0000.0001) %MON obc_N_vVel_Int               =  -1.1099559393701E+04
(PID.TID 0000.0001) // =======================================================
(PID.TID 0000.0001) // End OBCS MONITOR field statistics
(PID.TID 0000.0001) // =======================================================
 cg2d: Sum(rhs),rhsMax =   4.52297303211089E+00  2.99860239569759E+02
(PID.TID 0000.0001)      cg2d_init_res =   1.13115494401099E-05
(PID.TID 0000.0001)      cg2d_iters(min,last) =      -1      87
(PID.TID 0000.0001)      cg2d_last_res =   9.10075707972376E-12
(PID.TID 0000.0001) // =======================================================
(PID.TID 0000.0001) // Begin MONITOR dynamic field statistics
(PID.TID 0000.0001) // =======================================================
(PID.TID 0000.0001) %MON time_tsnumber                =                    74
(PID.TID 0000.0001) %MON time_secondsf                =   7.4000000000000E+03
(PID.TID 0000.0001) %MON dynstat_eta_max              =   5.7989647296492E+00
(PID.TID 0000.0001) %MON dynstat_eta_min              =  -1.4199558812051E+01
(PID.TID 0000.0001) %MON dynstat_eta_mean             =  -2.5115921795858E+00
(PID.TID 0000.0001) %MON dynstat_eta_sd               =   4.9525168100720E+00
(PID.TID 0000.0001) %MON dynstat_eta_del2             =   2.0713995539416E-01
(PID.TID 0000.0001) %MON dynstat_uvel_max             =   1.2156073065661E-03
(PID.TID 0000.0001) %MON dynstat_uvel_min             =  -1.4283475750734E-03
(PID.TID 0000.0001) %MON dynstat_uvel_mean            =  -1.9658979280855E-06
(PID.TID 0000.0001) %MON dynstat_uvel_sd              =   5.4741265926558E-05
(PID.TID 0000.0001) %MON dynstat_uvel_del2            =   2.7695907819695E-07
(PID.TID 0000.0001) %MON dynstat_vvel_max             =   1.1887377320612E-03
(PID.TID 0000.0001) %MON dynstat_vvel_min             =  -1.4022419473978E-03
(PID.TID 0000.0001) %MON dynstat_vvel_mean            =  -1.3194485437600E-04
(PID.TID 0000.0001) %MON dynstat_vvel_sd              =   1.3533950811218E-04
(PID.TID 0000.0001) %MON dynstat_vvel_del2            =   6.2186854539888E-07
(PID.TID 0000.0001) %MON dynstat_wvel_max             =   5.2687890041198E-04
(PID.TID 0000.0001) %MON dynstat_wvel_min             =  -4.1333059626468E-04
(PID.TID 0000.0001) %MON dynstat_wvel_mean            =   1.1994364924785E-07
(PID.TID 0000.0001) %MON dynstat_wvel_sd              =   5.5852605605958E-05
(PID.TID 0000.0001) %MON dynstat_wvel_del2            =   3.1616938486054E-07
(PID.TID 0000.0001) %MON dynstat_theta_max            =   1.2000000000000E+00
(PID.TID 0000.0001) %MON dynstat_theta_min            =  -1.0000000000000E+00
(PID.TID 0000.0001) %MON dynstat_theta_mean           =   5.6913844491963E-01
(PID.TID 0000.0001) %MON dynstat_theta_sd             =   8.6860257842190E-01
(PID.TID 0000.0001) %MON dynstat_theta_del2           =   3.1668110254184E-06
(PID.TID 0000.0001) %MON dynstat_salt_max             =   3.4700000000000E+01
(PID.TID 0000.0001) %MON dynstat_salt_min             =   3.4000000000000E+01
(PID.TID 0000.0001) %MON dynstat_salt_mean            =   3.4499269573688E+01
(PID.TID 0000.0001) %MON dynstat_salt_sd              =   2.7637312651154E-01
(PID.TID 0000.0001) %MON dynstat_salt_del2            =   1.0072885784061E-06
(PID.TID 0000.0001) %MON advcfl_uvel_max              =   1.4283475750734E-04
(PID.TID 0000.0001) %MON advcfl_vvel_max              =   1.4022419473978E-04
(PID.TID 0000.0001) %MON advcfl_wvel_max              =   2.6343945020599E-03
(PID.TID 0000.0001) %MON advcfl_W_hf_max              =   2.6343945020599E-03
(PID.TID 0000.0001) %MON pe_b_mean                    =  -8.3204565191808E-01
(PID.TID 0000.0001) %MON ke_max                       =   1.3171482035580E-06
(PID.TID 0000.0001) %MON ke_mean                      =   1.9258554788554E-08
(PID.TID 0000.0001) %MON ke_vol                       =   4.2725602189273E+12
(PID.TID 0000.0001) // =======================================================
(PID.TID 0000.0001) // End MONITOR dynamic field statistics
(PID.TID 0000.0001) // =======================================================
(PID.TID 0000.0001) // =======================================================
(PID.TID 0000.0001) // Begin OBCS MONITOR field statistics
(PID.TID 0000.0001) // =======================================================
(PID.TID 0000.0001) %MON obc_N_vVel_max               =  -1.3795822578172E-04
(PID.TID 0000.0001) %MON obc_N_vVel_min               =  -1.3795822578172E-04
(PID.TID 0000.0001) %MON obc_N_vVel_mean              =  -1.3795822578172E-04
(PID.TID 0000.0001) %MON obc_N_vVel_sd                =   3.4941645412434E-11
(PID.TID 0000.0001) %MON obc_N_vVel_Int               =  -9.1052429015937E+03
(PID.TID 0000.0001) // =======================================================
(PID.TID 0000.0001) // End OBCS MONITOR field statistics
(PID.TID 0000.0001) // =======================================================
 cg2d: Sum(rhs),rhsMax =   4.52275553999492E+00  2.99860384453869E+02
(PID.TID 0000.0001)      cg2d_init_res =   1.09068884000742E-05
(PID.TID 0000.0001)      cg2d_iters(min,last) =      -1      85
(PID.TID 0000.0001)      cg2d_last_res =   9.48964377984827E-12
(PID.TID 0000.0001) // =======================================================
(PID.TID 0000.0001) // Begin MONITOR dynamic field statistics
(PID.TID 0000.0001) // =======================================================
(PID.TID 0000.0001) %MON time_tsnumber                =                    75
(PID.TID 0000.0001) %MON time_secondsf                =   7.5000000000000E+03
(PID.TID 0000.0001) %MON dynstat_eta_max              =   5.7991322167392E+00
(PID.TID 0000.0001) %MON dynstat_eta_min              =  -1.4199430776884E+01
(PID.TID 0000.0001) %MON dynstat_eta_mean             =  -2.5114726203958E+00
(PID.TID 0000.0001) %MON dynstat_eta_sd               =   4.9525082336437E+00
(PID.TID 0000.0001) %MON dynstat_eta_del2             =   2.0713995617964E-01
(PID.TID 0000.0001) %MON dynstat_uvel_max             =   1.2425209637890E-03
(PID.TID 0000.0001) %MON dynstat_uvel_min             =  -1.4477241073232E-03
(PID.TID 0000.0001) %MON dynstat_uvel_mean            =  -2.0591143093388E-06
(PID.TID 0000.0001) %MON dynstat_uvel_sd              =   5.5094635428334E-05
(PID.TID 0000.0001) %MON dynstat_uvel_del2            =   2.8127920648958E-07
(PID.TID 0000.0001) %MON dynstat_vvel_max             =   1.2719370801815E-03
(PID.TID 0000.0001) %MON dynstat_vvel_min             =  -1.3618494421106E-03
(PID.TID 0000.0001) %MON dynstat_vvel_mean            =  -9.2240525029381E-05
(PID.TID 0000.0001) %MON dynstat_vvel_sd              =   1.3504558097750E-04
(PID.TID 0000.0001) %MON dynstat_vvel_del2            =   6.2973967289539E-07
(PID.TID 0000.0001) %MON dynstat_wvel_max             =   5.2073066039402E-04
(PID.TID 0000.0001) %MON dynstat_wvel_min             =  -4.2955964403435E-04
(PID.TID 0000.0001) %MON dynstat_wvel_mean            =   1.8768523708862E-07
(PID.TID 0000.0001) %MON dynstat_wvel_sd              =   5.6621524049443E-05
(PID.TID 0000.0001) %MON dynstat_wvel_del2            =   3.2441888977812E-07
(PID.TID 0000.0001) %MON dynstat_theta_max            =   1.2000000000000E+00
(PID.TID 0000.0001) %MON dynstat_theta_min            =  -1.0000000000000E+00
(PID.TID 0000.0001) %MON dynstat_theta_mean           =   5.6913814164173E-01
(PID.TID 0000.0001) %MON dynstat_theta_sd             =   8.6860245525566E-01
(PID.TID 0000.0001) %MON dynstat_theta_del2           =   3.1430384366689E-06
(PID.TID 0000.0001) %MON dynstat_salt_max             =   3.4700000000000E+01
(PID.TID 0000.0001) %MON dynstat_salt_min             =   3.4000000000000E+01
(PID.TID 0000.0001) %MON dynstat_salt_mean            =   3.4499269456157E+01
(PID.TID 0000.0001) %MON dynstat_salt_sd              =   2.7637308155470E-01
(PID.TID 0000.0001) %MON dynstat_salt_del2            =   9.9969152945254E-07
(PID.TID 0000.0001) %MON advcfl_uvel_max              =   1.4477241073232E-04
(PID.TID 0000.0001) %MON advcfl_vvel_max              =   1.3618494421106E-04
(PID.TID 0000.0001) %MON advcfl_wvel_max              =   2.6036533019701E-03
(PID.TID 0000.0001) %MON advcfl_W_hf_max              =   2.6036533019701E-03
(PID.TID 0000.0001) %MON pe_b_mean                    =  -8.3202502988008E-01
(PID.TID 0000.0001) %MON ke_max                       =   1.3454363887326E-06
(PID.TID 0000.0001) %MON ke_mean                      =   1.4818262215099E-08
(PID.TID 0000.0001) %MON ke_vol                       =   4.2725611424533E+12
(PID.TID 0000.0001) // =======================================================
(PID.TID 0000.0001) // End MONITOR dynamic field statistics
(PID.TID 0000.0001) // =======================================================
(PID.TID 0000.0001) // =======================================================
(PID.TID 0000.0001) // Begin OBCS MONITOR field statistics
(PID.TID 0000.0001) // =======================================================
(PID.TID 0000.0001) %MON obc_N_vVel_max               =  -1.0563333401863E-04
(PID.TID 0000.0001) %MON obc_N_vVel_min               =  -1.0563333401864E-04
(PID.TID 0000.0001) %MON obc_N_vVel_mean              =  -1.0563333401863E-04
(PID.TID 0000.0001) %MON obc_N_vVel_sd                =   2.5335590684670E-11
(PID.TID 0000.0001) %MON obc_N_vVel_Int               =  -6.9718000452297E+03
(PID.TID 0000.0001) // =======================================================
(PID.TID 0000.0001) // End OBCS MONITOR field statistics
(PID.TID 0000.0001) // =======================================================
 cg2d: Sum(rhs),rhsMax =   4.52260519731151E+00  2.99860514713053E+02
(PID.TID 0000.0001)      cg2d_init_res =   1.06193951253821E-05
(PID.TID 0000.0001)      cg2d_iters(min,last) =      -1      84
(PID.TID 0000.0001)      cg2d_last_res =   9.03186199054726E-12
(PID.TID 0000.0001) // =======================================================
(PID.TID 0000.0001) // Begin MONITOR dynamic field statistics
(PID.TID 0000.0001) // =======================================================
(PID.TID 0000.0001) %MON time_tsnumber                =                    76
(PID.TID 0000.0001) %MON time_secondsf                =   7.6000000000000E+03
(PID.TID 0000.0001) %MON dynstat_eta_max              =   5.7992023016477E+00
(PID.TID 0000.0001) %MON dynstat_eta_min              =  -1.4199359444276E+01
(PID.TID 0000.0001) %MON dynstat_eta_mean             =  -2.5113902264995E+00
(PID.TID 0000.0001) %MON dynstat_eta_sd               =   4.9525121402496E+00
(PID.TID 0000.0001) %MON dynstat_eta_del2             =   2.0713995684327E-01
(PID.TID 0000.0001) %MON dynstat_uvel_max             =   1.2691667295890E-03
(PID.TID 0000.0001) %MON dynstat_uvel_min             =  -1.4661781178660E-03
(PID.TID 0000.0001) %MON dynstat_uvel_mean            =  -2.1095221978575E-06
(PID.TID 0000.0001) %MON dynstat_uvel_sd              =   5.5494652543075E-05
(PID.TID 0000.0001) %MON dynstat_uvel_del2            =   2.8548857112882E-07
(PID.TID 0000.0001) %MON dynstat_vvel_max             =   1.3545565308952E-03
(PID.TID 0000.0001) %MON dynstat_vvel_min             =  -1.3207697894568E-03
(PID.TID 0000.0001) %MON dynstat_vvel_mean            =  -5.2228530002703E-05
(PID.TID 0000.0001) %MON dynstat_vvel_sd              =   1.3533001215841E-04
(PID.TID 0000.0001) %MON dynstat_vvel_del2            =   6.3384757569386E-07
(PID.TID 0000.0001) %MON dynstat_wvel_max             =   5.0279823580984E-04
(PID.TID 0000.0001) %MON dynstat_wvel_min             =  -4.4432392305586E-04
(PID.TID 0000.0001) %MON dynstat_wvel_mean            =   2.4633902254921E-07
(PID.TID 0000.0001) %MON dynstat_wvel_sd              =   5.7266709758942E-05
(PID.TID 0000.0001) %MON dynstat_wvel_del2            =   3.2968212261601E-07
(PID.TID 0000.0001) %MON dynstat_theta_max            =   1.2000000000000E+00
(PID.TID 0000.0001) %MON dynstat_theta_min            =  -1.0000000000000E+00
(PID.TID 0000.0001) %MON dynstat_theta_mean           =   5.6913785373293E-01
(PID.TID 0000.0001) %MON dynstat_theta_sd             =   8.6860232534070E-01
(PID.TID 0000.0001) %MON dynstat_theta_del2           =   3.1216048568176E-06
(PID.TID 0000.0001) %MON dynstat_salt_max             =   3.4700000000000E+01
(PID.TID 0000.0001) %MON dynstat_salt_min             =   3.4000000000000E+01
(PID.TID 0000.0001) %MON dynstat_salt_mean            =   3.4499269343517E+01
(PID.TID 0000.0001) %MON dynstat_salt_sd              =   2.7637303445500E-01
(PID.TID 0000.0001) %MON dynstat_salt_del2            =   9.9284159147298E-07
(PID.TID 0000.0001) %MON advcfl_uvel_max              =   1.4661781178660E-04
(PID.TID 0000.0001) %MON advcfl_vvel_max              =   1.3545565308952E-04
(PID.TID 0000.0001) %MON advcfl_wvel_max              =   2.5139911790492E-03
(PID.TID 0000.0001) %MON advcfl_W_hf_max              =   2.5139911790492E-03
(PID.TID 0000.0001) %MON pe_b_mean                    =  -8.3201444908139E-01
(PID.TID 0000.0001) %MON ke_max                       =   1.3754071646528E-06
(PID.TID 0000.0001) %MON ke_mean                      =   1.2011470213327E-08
(PID.TID 0000.0001) %MON ke_vol                       =   4.2725618526348E+12
(PID.TID 0000.0001) // =======================================================
(PID.TID 0000.0001) // End MONITOR dynamic field statistics
(PID.TID 0000.0001) // =======================================================
(PID.TID 0000.0001) // =======================================================
(PID.TID 0000.0001) // Begin OBCS MONITOR field statistics
(PID.TID 0000.0001) // =======================================================
(PID.TID 0000.0001) %MON obc_N_vVel_max               =  -7.2184578464613E-05
(PID.TID 0000.0001) %MON obc_N_vVel_min               =  -7.2184578464614E-05
(PID.TID 0000.0001) %MON obc_N_vVel_mean              =  -7.2184578464613E-05
(PID.TID 0000.0001) %MON obc_N_vVel_sd                =   1.6421354380571E-11
(PID.TID 0000.0001) %MON obc_N_vVel_Int               =  -4.7641821786644E+03
(PID.TID 0000.0001) // =======================================================
(PID.TID 0000.0001) // End OBCS MONITOR field statistics
(PID.TID 0000.0001) // =======================================================
 cg2d: Sum(rhs),rhsMax =   4.52252235463799E+00  2.99860629918588E+02
(PID.TID 0000.0001)      cg2d_init_res =   1.04355300701451E-05
(PID.TID 0000.0001)      cg2d_iters(min,last) =      -1      82
(PID.TID 0000.0001)      cg2d_last_res =   9.92516392210733E-12
(PID.TID 0000.0001) // =======================================================
(PID.TID 0000.0001) // Begin MONITOR dynamic field statistics
(PID.TID 0000.0001) // =======================================================
(PID.TID 0000.0001) %MON time_tsnumber                =                    77
(PID.TID 0000.0001) %MON time_secondsf                =   7.7000000000000E+03
(PID.TID 0000.0001) %MON dynstat_eta_max              =   5.7991841600045E+00
(PID.TID 0000.0001) %MON dynstat_eta_min              =  -1.4199343869627E+01
(PID.TID 0000.0001) %MON dynstat_eta_mean             =  -2.5113451890419E+00
(PID.TID 0000.0001) %MON dynstat_eta_sd               =   4.9525277612583E+00
(PID.TID 0000.0001) %MON dynstat_eta_del2             =   2.0713995745965E-01
(PID.TID 0000.0001) %MON dynstat_uvel_max             =   1.2955587941335E-03
(PID.TID 0000.0001) %MON dynstat_uvel_min             =  -1.4836945356782E-03
(PID.TID 0000.0001) %MON dynstat_uvel_mean            =  -2.1139603609606E-06
(PID.TID 0000.0001) %MON dynstat_uvel_sd              =   5.5938825525468E-05
(PID.TID 0000.0001) %MON dynstat_uvel_del2            =   2.8958890131311E-07
(PID.TID 0000.0001) %MON dynstat_vvel_max             =   1.4352299044216E-03
(PID.TID 0000.0001) %MON dynstat_vvel_min             =  -1.2806549119322E-03
(PID.TID 0000.0001) %MON dynstat_vvel_mean            =  -1.2986656498690E-05
(PID.TID 0000.0001) %MON dynstat_vvel_sd              =   1.3604508844953E-04
(PID.TID 0000.0001) %MON dynstat_vvel_del2            =   6.3416880386547E-07
(PID.TID 0000.0001) %MON dynstat_wvel_max             =   4.7366413008981E-04
(PID.TID 0000.0001) %MON dynstat_wvel_min             =  -4.5221946084614E-04
(PID.TID 0000.0001) %MON dynstat_wvel_mean            =   2.9490120663889E-07
(PID.TID 0000.0001) %MON dynstat_wvel_sd              =   5.7708367687857E-05
(PID.TID 0000.0001) %MON dynstat_wvel_del2            =   3.3157855676386E-07
(PID.TID 0000.0001) %MON dynstat_theta_max            =   1.2000000000000E+00
(PID.TID 0000.0001) %MON dynstat_theta_min            =  -1.0000000000000E+00
(PID.TID 0000.0001) %MON dynstat_theta_mean           =   5.6913758104816E-01
(PID.TID 0000.0001) %MON dynstat_theta_sd             =   8.6860218875143E-01
(PID.TID 0000.0001) %MON dynstat_theta_del2           =   3.1028458291934E-06
(PID.TID 0000.0001) %MON dynstat_salt_max             =   3.4700000000000E+01
(PID.TID 0000.0001) %MON dynstat_salt_min             =   3.4000000000000E+01
(PID.TID 0000.0001) %MON dynstat_salt_mean            =   3.4499269235721E+01
(PID.TID 0000.0001) %MON dynstat_salt_sd              =   2.7637298523727E-01
(PID.TID 0000.0001) %MON dynstat_salt_del2            =   9.8684537229825E-07
(PID.TID 0000.0001) %MON advcfl_uvel_max              =   1.4836945356782E-04
(PID.TID 0000.0001) %MON advcfl_vvel_max              =   1.4352299044216E-04
(PID.TID 0000.0001) %MON advcfl_wvel_max              =   2.3683206504491E-03
(PID.TID 0000.0001) %MON advcfl_W_hf_max              =   2.3683206504491E-03
(PID.TID 0000.0001) %MON pe_b_mean                    =  -8.3201365869112E-01
(PID.TID 0000.0001) %MON ke_max                       =   1.4068597427900E-06
(PID.TID 0000.0001) %MON ke_mean                      =   1.0867664300237E-08
(PID.TID 0000.0001) %MON ke_vol                       =   4.2725623420546E+12
(PID.TID 0000.0001) // =======================================================
(PID.TID 0000.0001) // End MONITOR dynamic field statistics
(PID.TID 0000.0001) // =======================================================
(PID.TID 0000.0001) // =======================================================
(PID.TID 0000.0001) // Begin OBCS MONITOR field statistics
(PID.TID 0000.0001) // =======================================================
(PID.TID 0000.0001) %MON obc_N_vVel_max               =  -3.8563792394483E-05
(PID.TID 0000.0001) %MON obc_N_vVel_min               =  -3.8563792394484E-05
(PID.TID 0000.0001) %MON obc_N_vVel_mean              =  -3.8563792394484E-05
(PID.TID 0000.0001) %MON obc_N_vVel_sd                =  -6.4106497472860E-24
(PID.TID 0000.0001) %MON obc_N_vVel_Int               =  -2.5452102980359E+03
(PID.TID 0000.0001) // =======================================================
(PID.TID 0000.0001) // End OBCS MONITOR field statistics
(PID.TID 0000.0001) // =======================================================
 cg2d: Sum(rhs),rhsMax =   4.52250556025943E+00  2.99860730086596E+02
(PID.TID 0000.0001)      cg2d_init_res =   1.03310538444146E-05
(PID.TID 0000.0001)      cg2d_iters(min,last) =      -1      84
(PID.TID 0000.0001)      cg2d_last_res =   9.30098080732863E-12
(PID.TID 0000.0001) // =======================================================
(PID.TID 0000.0001) // Begin MONITOR dynamic field statistics
(PID.TID 0000.0001) // =======================================================
(PID.TID 0000.0001) %MON time_tsnumber                =                    78
(PID.TID 0000.0001) %MON time_secondsf                =   7.8000000000000E+03
(PID.TID 0000.0001) %MON dynstat_eta_max              =   5.7990842351213E+00
(PID.TID 0000.0001) %MON dynstat_eta_min              =  -1.4199381672763E+01
(PID.TID 0000.0001) %MON dynstat_eta_mean             =  -2.5113367020742E+00
(PID.TID 0000.0001) %MON dynstat_eta_sd               =   4.9525540657003E+00
(PID.TID 0000.0001) %MON dynstat_eta_del2             =   2.0713995804943E-01
(PID.TID 0000.0001) %MON dynstat_uvel_max             =   1.3217114906254E-03
(PID.TID 0000.0001) %MON dynstat_uvel_min             =  -1.5002579440768E-03
(PID.TID 0000.0001) %MON dynstat_uvel_mean            =  -2.0702520584076E-06
(PID.TID 0000.0001) %MON dynstat_uvel_sd              =   5.6421885479747E-05
(PID.TID 0000.0001) %MON dynstat_uvel_del2            =   2.9358198450670E-07
(PID.TID 0000.0001) %MON dynstat_vvel_max             =   1.5127309013199E-03
(PID.TID 0000.0001) %MON dynstat_vvel_min             =  -1.2513389729438E-03
(PID.TID 0000.0001) %MON dynstat_vvel_mean            =   2.4495530072330E-05
(PID.TID 0000.0001) %MON dynstat_vvel_sd              =   1.3701615882256E-04
(PID.TID 0000.0001) %MON dynstat_vvel_del2            =   6.3105236210779E-07
(PID.TID 0000.0001) %MON dynstat_wvel_max             =   4.3418483449890E-04
(PID.TID 0000.0001) %MON dynstat_wvel_min             =  -4.5284836995671E-04
(PID.TID 0000.0001) %MON dynstat_wvel_mean            =   3.3269595123469E-07
(PID.TID 0000.0001) %MON dynstat_wvel_sd              =   5.7897314080133E-05
(PID.TID 0000.0001) %MON dynstat_wvel_del2            =   3.3005958878390E-07
(PID.TID 0000.0001) %MON dynstat_theta_max            =   1.2000000000000E+00
(PID.TID 0000.0001) %MON dynstat_theta_min            =  -1.0000000000000E+00
(PID.TID 0000.0001) %MON dynstat_theta_mean           =   5.6913732305287E-01
(PID.TID 0000.0001) %MON dynstat_theta_sd             =   8.6860204600089E-01
(PID.TID 0000.0001) %MON dynstat_theta_del2           =   3.0867811843042E-06
(PID.TID 0000.0001) %MON dynstat_salt_max             =   3.4700000000000E+01
(PID.TID 0000.0001) %MON dynstat_salt_min             =   3.4000000000000E+01
(PID.TID 0000.0001) %MON dynstat_salt_mean            =   3.4499269132598E+01
(PID.TID 0000.0001) %MON dynstat_salt_sd              =   2.7637293406558E-01
(PID.TID 0000.0001) %MON dynstat_salt_del2            =   9.8170891970681E-07
(PID.TID 0000.0001) %MON advcfl_uvel_max              =   1.5002579440768E-04
(PID.TID 0000.0001) %MON advcfl_vvel_max              =   1.5127309013199E-04
(PID.TID 0000.0001) %MON advcfl_wvel_max              =   2.2642418497836E-03
(PID.TID 0000.0001) %MON advcfl_W_hf_max              =   2.2642418497836E-03
(PID.TID 0000.0001) %MON pe_b_mean                    =  -8.3202216451251E-01
(PID.TID 0000.0001) %MON ke_max                       =   1.4392589584921E-06
(PID.TID 0000.0001) %MON ke_mean                      =   1.1248033688614E-08
(PID.TID 0000.0001) %MON ke_vol                       =   4.2725626095771E+12
(PID.TID 0000.0001) // =======================================================
(PID.TID 0000.0001) // End MONITOR dynamic field statistics
(PID.TID 0000.0001) // =======================================================
(PID.TID 0000.0001) // =======================================================
(PID.TID 0000.0001) // Begin OBCS MONITOR field statistics
(PID.TID 0000.0001) // =======================================================
(PID.TID 0000.0001) %MON obc_N_vVel_max               =  -5.6683601393031E-06
(PID.TID 0000.0001) %MON obc_N_vVel_min               =  -5.6683601393032E-06
(PID.TID 0000.0001) %MON obc_N_vVel_mean              =  -5.6683601393032E-06
(PID.TID 0000.0001) %MON obc_N_vVel_sd                =  -1.1826097820094E-24
(PID.TID 0000.0001) %MON obc_N_vVel_Int               =  -3.7411176919401E+02
(PID.TID 0000.0001) // =======================================================
(PID.TID 0000.0001) // End OBCS MONITOR field statistics
(PID.TID 0000.0001) // =======================================================
 cg2d: Sum(rhs),rhsMax =   4.52255170883062E+00  2.99860815649395E+02
(PID.TID 0000.0001)      cg2d_init_res =   1.02778124732740E-05
(PID.TID 0000.0001)      cg2d_iters(min,last) =      -1      85
(PID.TID 0000.0001)      cg2d_last_res =   8.93536759023056E-12
(PID.TID 0000.0001) // =======================================================
(PID.TID 0000.0001) // Begin MONITOR dynamic field statistics
(PID.TID 0000.0001) // =======================================================
(PID.TID 0000.0001) %MON time_tsnumber                =                    79
(PID.TID 0000.0001) %MON time_secondsf                =   7.9000000000000E+03
(PID.TID 0000.0001) %MON dynstat_eta_max              =   5.7989101265765E+00
(PID.TID 0000.0001) %MON dynstat_eta_min              =  -1.4199469182653E+01
(PID.TID 0000.0001) %MON dynstat_eta_mean             =  -2.5113630448639E+00
(PID.TID 0000.0001) %MON dynstat_eta_sd               =   4.9525898028835E+00
(PID.TID 0000.0001) %MON dynstat_eta_del2             =   2.0713995862560E-01
(PID.TID 0000.0001) %MON dynstat_uvel_max             =   1.3476363904559E-03
(PID.TID 0000.0001) %MON dynstat_uvel_min             =  -1.5158527365289E-03
(PID.TID 0000.0001) %MON dynstat_uvel_mean            =  -1.9777911457398E-06
(PID.TID 0000.0001) %MON dynstat_uvel_sd              =   5.6936646561685E-05
(PID.TID 0000.0001) %MON dynstat_uvel_del2            =   2.9746960824961E-07
(PID.TID 0000.0001) %MON dynstat_vvel_max             =   1.5859984293733E-03
(PID.TID 0000.0001) %MON dynstat_vvel_min             =  -1.2592688159145E-03
(PID.TID 0000.0001) %MON dynstat_vvel_mean            =   5.9337152960598E-05
(PID.TID 0000.0001) %MON dynstat_vvel_sd              =   1.3806923449826E-04
(PID.TID 0000.0001) %MON dynstat_vvel_del2            =   6.2518452854906E-07
(PID.TID 0000.0001) %MON dynstat_wvel_max             =   3.8546691800044E-04
(PID.TID 0000.0001) %MON dynstat_wvel_min             =  -4.4595090642558E-04
(PID.TID 0000.0001) %MON dynstat_wvel_mean            =   3.5938075769809E-07
(PID.TID 0000.0001) %MON dynstat_wvel_sd              =   5.7816759839838E-05
(PID.TID 0000.0001) %MON dynstat_wvel_del2            =   3.2538823248200E-07
(PID.TID 0000.0001) %MON dynstat_theta_max            =   1.2000000000000E+00
(PID.TID 0000.0001) %MON dynstat_theta_min            =  -1.0000000000000E+00
(PID.TID 0000.0001) %MON dynstat_theta_mean           =   5.6913707886262E-01
(PID.TID 0000.0001) %MON dynstat_theta_sd             =   8.6860189774956E-01
(PID.TID 0000.0001) %MON dynstat_theta_del2           =   3.0731291004621E-06
(PID.TID 0000.0001) %MON dynstat_salt_max             =   3.4700000000000E+01
(PID.TID 0000.0001) %MON dynstat_salt_min             =   3.4000000000000E+01
(PID.TID 0000.0001) %MON dynstat_salt_mean            =   3.4499269033869E+01
(PID.TID 0000.0001) %MON dynstat_salt_sd              =   2.7637288115134E-01
(PID.TID 0000.0001) %MON dynstat_salt_del2            =   9.7734220188601E-07
(PID.TID 0000.0001) %MON advcfl_uvel_max              =   1.5158527365289E-04
(PID.TID 0000.0001) %MON advcfl_vvel_max              =   1.5859984293733E-04
(PID.TID 0000.0001) %MON advcfl_wvel_max              =   2.2297545321279E-03
(PID.TID 0000.0001) %MON advcfl_W_hf_max              =   2.2297545321279E-03
(PID.TID 0000.0001) %MON pe_b_mean                    =  -8.3203925716193E-01
(PID.TID 0000.0001) %MON ke_max                       =   1.4802357546932E-06
(PID.TID 0000.0001) %MON ke_mean                      =   1.2879161147069E-08
(PID.TID 0000.0001) %MON ke_vol                       =   4.2725626599897E+12
(PID.TID 0000.0001) // =======================================================
(PID.TID 0000.0001) // End MONITOR dynamic field statistics
(PID.TID 0000.0001) // =======================================================
(PID.TID 0000.0001) // =======================================================
(PID.TID 0000.0001) // Begin OBCS MONITOR field statistics
(PID.TID 0000.0001) // =======================================================
(PID.TID 0000.0001) %MON obc_N_vVel_max               =   2.5678412925629E-05
(PID.TID 0000.0001) %MON obc_N_vVel_min               =   2.5678412925629E-05
(PID.TID 0000.0001) %MON obc_N_vVel_mean              =   2.5678412925629E-05
(PID.TID 0000.0001) %MON obc_N_vVel_sd                =  -1.8404768629305E-23
(PID.TID 0000.0001) %MON obc_N_vVel_Int               =   1.6947752530915E+03
(PID.TID 0000.0001) // =======================================================
(PID.TID 0000.0001) // End OBCS MONITOR field statistics
(PID.TID 0000.0001) // =======================================================
 cg2d: Sum(rhs),rhsMax =   4.52265622434616E+00  2.99860887421934E+02
(PID.TID 0000.0001)      cg2d_init_res =   1.02505064149526E-05
(PID.TID 0000.0001)      cg2d_iters(min,last) =      -1      86
(PID.TID 0000.0001)      cg2d_last_res =   8.71774965296246E-12
(PID.TID 0000.0001) // =======================================================
(PID.TID 0000.0001) // Begin MONITOR dynamic field statistics
(PID.TID 0000.0001) // =======================================================
(PID.TID 0000.0001) %MON time_tsnumber                =                    80
(PID.TID 0000.0001) %MON time_secondsf                =   8.0000000000000E+03
(PID.TID 0000.0001) %MON dynstat_eta_max              =   5.7986709651877E+00
(PID.TID 0000.0001) %MON dynstat_eta_min              =  -1.4199601597544E+01
(PID.TID 0000.0001) %MON dynstat_eta_mean             =  -2.5114216832162E+00
(PID.TID 0000.0001) %MON dynstat_eta_sd               =   4.9526335496296E+00
(PID.TID 0000.0001) %MON dynstat_eta_del2             =   2.0713995920723E-01
(PID.TID 0000.0001) %MON dynstat_uvel_max             =   1.3733405720835E-03
(PID.TID 0000.0001) %MON dynstat_uvel_min             =  -1.5304638111191E-03
(PID.TID 0000.0001) %MON dynstat_uvel_mean            =  -1.8378575000665E-06
(PID.TID 0000.0001) %MON dynstat_uvel_sd              =   5.7474945109096E-05
(PID.TID 0000.0001) %MON dynstat_uvel_del2            =   3.0125352390700E-07
(PID.TID 0000.0001) %MON dynstat_vvel_max             =   1.6541521768580E-03
(PID.TID 0000.0001) %MON dynstat_vvel_min             =  -1.2687273795979E-03
(PID.TID 0000.0001) %MON dynstat_vvel_mean            =   9.0782582702698E-05
(PID.TID 0000.0001) %MON dynstat_vvel_sd              =   1.3905262224330E-04
(PID.TID 0000.0001) %MON dynstat_vvel_del2            =   6.1753007141430E-07
(PID.TID 0000.0001) %MON dynstat_wvel_max             =   3.2924701859016E-04
(PID.TID 0000.0001) %MON dynstat_wvel_min             =  -4.3141710038853E-04
(PID.TID 0000.0001) %MON dynstat_wvel_mean            =   3.7494306191570E-07
(PID.TID 0000.0001) %MON dynstat_wvel_sd              =   5.7481218946057E-05
(PID.TID 0000.0001) %MON dynstat_wvel_del2            =   3.1811482237326E-07
(PID.TID 0000.0001) %MON dynstat_theta_max            =   1.2000000000000E+00
(PID.TID 0000.0001) %MON dynstat_theta_min            =  -1.0000000000000E+00
(PID.TID 0000.0001) %MON dynstat_theta_mean           =   5.6913684728829E-01
(PID.TID 0000.0001) %MON dynstat_theta_sd             =   8.6860174473275E-01
(PID.TID 0000.0001) %MON dynstat_theta_del2           =   3.0613472844483E-06
(PID.TID 0000.0001) %MON dynstat_salt_max             =   3.4700000000000E+01
(PID.TID 0000.0001) %MON dynstat_salt_min             =   3.4000000000000E+01
(PID.TID 0000.0001) %MON dynstat_salt_mean            =   3.4499268939154E+01
(PID.TID 0000.0001) %MON dynstat_salt_sd              =   2.7637282672909E-01
(PID.TID 0000.0001) %MON dynstat_salt_del2            =   9.7357221865565E-07
(PID.TID 0000.0001) %MON advcfl_uvel_max              =   1.5304638111191E-04
(PID.TID 0000.0001) %MON advcfl_vvel_max              =   1.6541521768580E-04
(PID.TID 0000.0001) %MON advcfl_wvel_max              =   2.1570855019426E-03
(PID.TID 0000.0001) %MON advcfl_W_hf_max              =   2.1570855019426E-03
(PID.TID 0000.0001) %MON pe_b_mean                    =  -8.3206404443201E-01
(PID.TID 0000.0001) %MON ke_max                       =   1.5394164551889E-06
(PID.TID 0000.0001) %MON ke_mean                      =   1.5396385107827E-08
(PID.TID 0000.0001) %MON ke_vol                       =   4.2725625035135E+12
(PID.TID 0000.0001) // =======================================================
(PID.TID 0000.0001) // End MONITOR dynamic field statistics
(PID.TID 0000.0001) // =======================================================
(PID.TID 0000.0001) // =======================================================
(PID.TID 0000.0001) // Begin OBCS MONITOR field statistics
(PID.TID 0000.0001) // =======================================================
(PID.TID 0000.0001) %MON obc_N_vVel_max               =   5.4744410751233E-05
(PID.TID 0000.0001) %MON obc_N_vVel_min               =   5.4744410751232E-05
(PID.TID 0000.0001) %MON obc_N_vVel_mean              =   5.4744410751232E-05
(PID.TID 0000.0001) %MON obc_N_vVel_sd                =   1.2269754336769E-11
(PID.TID 0000.0001) %MON obc_N_vVel_Int               =   3.6131311095813E+03
(PID.TID 0000.0001) // =======================================================
(PID.TID 0000.0001) // End OBCS MONITOR field statistics
(PID.TID 0000.0001) // =======================================================
 cg2d: Sum(rhs),rhsMax =   4.52281327134968E+00  2.99860946559406E+02
(PID.TID 0000.0001)      cg2d_init_res =   1.02289365398946E-05
(PID.TID 0000.0001)      cg2d_iters(min,last) =      -1      86
(PID.TID 0000.0001)      cg2d_last_res =   9.85031354108847E-12
(PID.TID 0000.0001) // =======================================================
(PID.TID 0000.0001) // Begin MONITOR dynamic field statistics
(PID.TID 0000.0001) // =======================================================
(PID.TID 0000.0001) %MON time_tsnumber                =                    81
(PID.TID 0000.0001) %MON time_secondsf                =   8.1000000000000E+03
(PID.TID 0000.0001) %MON dynstat_eta_max              =   5.7983770864544E+00
(PID.TID 0000.0001) %MON dynstat_eta_min              =  -1.4199773196602E+01
(PID.TID 0000.0001) %MON dynstat_eta_mean             =  -2.5115093864044E+00
(PID.TID 0000.0001) %MON dynstat_eta_sd               =   4.9526837595965E+00
(PID.TID 0000.0001) %MON dynstat_eta_del2             =   2.0713995981076E-01
(PID.TID 0000.0001) %MON dynstat_uvel_max             =   1.3988257550430E-03
(PID.TID 0000.0001) %MON dynstat_uvel_min             =  -1.5440767344375E-03
(PID.TID 0000.0001) %MON dynstat_uvel_mean            =  -1.6537986793230E-06
(PID.TID 0000.0001) %MON dynstat_uvel_sd              =   5.8028482844909E-05
(PID.TID 0000.0001) %MON dynstat_uvel_del2            =   3.0493541784289E-07
(PID.TID 0000.0001) %MON dynstat_vvel_max             =   1.7165015731013E-03
(PID.TID 0000.0001) %MON dynstat_vvel_min             =  -1.2799373958590E-03
(PID.TID 0000.0001) %MON dynstat_vvel_mean            =   1.1821376630218E-04
(PID.TID 0000.0001) %MON dynstat_vvel_sd              =   1.3985072809582E-04
(PID.TID 0000.0001) %MON dynstat_vvel_del2            =   6.0924593519810E-07
(PID.TID 0000.0001) %MON dynstat_wvel_max             =   3.6167139872464E-04
(PID.TID 0000.0001) %MON dynstat_wvel_min             =  -4.0929549715967E-04
(PID.TID 0000.0001) %MON dynstat_wvel_mean            =   3.7968291959321E-07
(PID.TID 0000.0001) %MON dynstat_wvel_sd              =   5.6933173116364E-05
(PID.TID 0000.0001) %MON dynstat_wvel_del2            =   3.0904518355431E-07
(PID.TID 0000.0001) %MON dynstat_theta_max            =   1.2000000000000E+00
(PID.TID 0000.0001) %MON dynstat_theta_min            =  -1.0000000000000E+00
(PID.TID 0000.0001) %MON dynstat_theta_mean           =   5.6913662688612E-01
(PID.TID 0000.0001) %MON dynstat_theta_sd             =   8.6860158780523E-01
(PID.TID 0000.0001) %MON dynstat_theta_del2           =   3.0507099791358E-06
(PID.TID 0000.0001) %MON dynstat_salt_max             =   3.4700000000000E+01
(PID.TID 0000.0001) %MON dynstat_salt_min             =   3.4000000000000E+01
(PID.TID 0000.0001) %MON dynstat_salt_mean            =   3.4499268847995E+01
(PID.TID 0000.0001) %MON dynstat_salt_sd              =   2.7637277107076E-01
(PID.TID 0000.0001) %MON dynstat_salt_del2            =   9.7016751292643E-07
(PID.TID 0000.0001) %MON advcfl_uvel_max              =   1.5440767344375E-04
(PID.TID 0000.0001) %MON advcfl_vvel_max              =   1.7165015731013E-04
(PID.TID 0000.0001) %MON advcfl_wvel_max              =   2.0464774857983E-03
(PID.TID 0000.0001) %MON advcfl_W_hf_max              =   2.0464774857983E-03
(PID.TID 0000.0001) %MON pe_b_mean                    =  -8.3209548665459E-01
(PID.TID 0000.0001) %MON ke_max                       =   1.5984346525956E-06
(PID.TID 0000.0001) %MON ke_mean                      =   1.8391245345177E-08
(PID.TID 0000.0001) %MON ke_vol                       =   4.2725621552017E+12
(PID.TID 0000.0001) // =======================================================
(PID.TID 0000.0001) // End MONITOR dynamic field statistics
(PID.TID 0000.0001) // =======================================================
(PID.TID 0000.0001) // =======================================================
(PID.TID 0000.0001) // Begin OBCS MONITOR field statistics
(PID.TID 0000.0001) // =======================================================
(PID.TID 0000.0001) %MON obc_N_vVel_max               =   8.0902754476378E-05
(PID.TID 0000.0001) %MON obc_N_vVel_min               =   8.0902754476378E-05
(PID.TID 0000.0001) %MON obc_N_vVel_mean              =   8.0902754476378E-05
(PID.TID 0000.0001) %MON obc_N_vVel_sd                =   1.7136193202002E-11
(PID.TID 0000.0001) %MON obc_N_vVel_Int               =   5.3395817954409E+03
(PID.TID 0000.0001) // =======================================================
(PID.TID 0000.0001) // End OBCS MONITOR field statistics
(PID.TID 0000.0001) // =======================================================
 cg2d: Sum(rhs),rhsMax =   4.52301598780635E+00  2.99860994509419E+02
(PID.TID 0000.0001)      cg2d_init_res =   1.02016706650948E-05
(PID.TID 0000.0001)      cg2d_iters(min,last) =      -1      87
(PID.TID 0000.0001)      cg2d_last_res =   8.49984771567334E-12
(PID.TID 0000.0001) // =======================================================
(PID.TID 0000.0001) // Begin MONITOR dynamic field statistics
(PID.TID 0000.0001) // =======================================================
(PID.TID 0000.0001) %MON time_tsnumber                =                    82
(PID.TID 0000.0001) %MON time_secondsf                =   8.2000000000000E+03
(PID.TID 0000.0001) %MON dynstat_eta_max              =   5.7980396312469E+00
(PID.TID 0000.0001) %MON dynstat_eta_min              =  -1.4199977561595E+01
(PID.TID 0000.0001) %MON dynstat_eta_mean             =  -2.5116223560845E+00
(PID.TID 0000.0001) %MON dynstat_eta_sd               =   4.9527388128996E+00
(PID.TID 0000.0001) %MON dynstat_eta_del2             =   2.0713996045333E-01
(PID.TID 0000.0001) %MON dynstat_uvel_max             =   1.4240876158311E-03
(PID.TID 0000.0001) %MON dynstat_uvel_min             =  -1.5566784059224E-03
(PID.TID 0000.0001) %MON dynstat_uvel_mean            =  -1.4310736212433E-06
(PID.TID 0000.0001) %MON dynstat_uvel_sd              =   5.8589472175625E-05
(PID.TID 0000.0001) %MON dynstat_uvel_del2            =   3.0851690379722E-07
(PID.TID 0000.0001) %MON dynstat_vvel_max             =   1.7725499835350E-03
(PID.TID 0000.0001) %MON dynstat_vvel_min             =  -1.2930540612199E-03
(PID.TID 0000.0001) %MON dynstat_vvel_mean            =   1.4115823033895E-04
(PID.TID 0000.0001) %MON dynstat_vvel_sd              =   1.4039030029331E-04
(PID.TID 0000.0001) %MON dynstat_vvel_del2            =   6.0156395254931E-07
(PID.TID 0000.0001) %MON dynstat_wvel_max             =   4.0329291525649E-04
(PID.TID 0000.0001) %MON dynstat_wvel_min             =  -3.7979804211767E-04
(PID.TID 0000.0001) %MON dynstat_wvel_mean            =   3.7418077764479E-07
(PID.TID 0000.0001) %MON dynstat_wvel_sd              =   5.6237678191953E-05
(PID.TID 0000.0001) %MON dynstat_wvel_del2            =   2.9919192671345E-07
(PID.TID 0000.0001) %MON dynstat_theta_max            =   1.2000000000000E+00
(PID.TID 0000.0001) %MON dynstat_theta_min            =  -1.0000000000000E+00
(PID.TID 0000.0001) %MON dynstat_theta_mean           =   5.6913641601003E-01
(PID.TID 0000.0001) %MON dynstat_theta_sd             =   8.6860142789577E-01
(PID.TID 0000.0001) %MON dynstat_theta_del2           =   3.0403983116646E-06
(PID.TID 0000.0001) %MON dynstat_salt_max             =   3.4700000000000E+01
(PID.TID 0000.0001) %MON dynstat_salt_min             =   3.4000000000000E+01
(PID.TID 0000.0001) %MON dynstat_salt_mean            =   3.4499268759867E+01
(PID.TID 0000.0001) %MON dynstat_salt_sd              =   2.7637271447170E-01
(PID.TID 0000.0001) %MON dynstat_salt_del2            =   9.6686694557406E-07
(PID.TID 0000.0001) %MON advcfl_uvel_max              =   1.5566784059224E-04
(PID.TID 0000.0001) %MON advcfl_vvel_max              =   1.7725499835350E-04
(PID.TID 0000.0001) %MON advcfl_wvel_max              =   2.0164645762824E-03
(PID.TID 0000.0001) %MON advcfl_W_hf_max              =   2.0164645762824E-03
(PID.TID 0000.0001) %MON pe_b_mean                    =  -8.3213243380608E-01
(PID.TID 0000.0001) %MON ke_max                       =   1.6570850343240E-06
(PID.TID 0000.0001) %MON ke_mean                      =   2.1457677304325E-08
(PID.TID 0000.0001) %MON ke_vol                       =   4.2725616342448E+12
(PID.TID 0000.0001) // =======================================================
(PID.TID 0000.0001) // End MONITOR dynamic field statistics
(PID.TID 0000.0001) // =======================================================
(PID.TID 0000.0001) // =======================================================
(PID.TID 0000.0001) // Begin OBCS MONITOR field statistics
(PID.TID 0000.0001) // =======================================================
(PID.TID 0000.0001) %MON obc_N_vVel_max               =   1.0364258882644E-04
(PID.TID 0000.0001) %MON obc_N_vVel_min               =   1.0364258882644E-04
(PID.TID 0000.0001) %MON obc_N_vVel_mean              =   1.0364258882644E-04
(PID.TID 0000.0001) %MON obc_N_vVel_sd                =  -1.8197973476167E-23
(PID.TID 0000.0001) %MON obc_N_vVel_Int               =   6.8404108625449E+03
(PID.TID 0000.0001) // =======================================================
(PID.TID 0000.0001) // End OBCS MONITOR field statistics
(PID.TID 0000.0001) // =======================================================
 cg2d: Sum(rhs),rhsMax =   4.52325673202524E+00  2.99861032956183E+02
(PID.TID 0000.0001)      cg2d_init_res =   1.01654420037598E-05
(PID.TID 0000.0001)      cg2d_iters(min,last) =      -1      87
(PID.TID 0000.0001)      cg2d_last_res =   9.05741289847846E-12
(PID.TID 0000.0001) // =======================================================
(PID.TID 0000.0001) // Begin MONITOR dynamic field statistics
(PID.TID 0000.0001) // =======================================================
(PID.TID 0000.0001) %MON time_tsnumber                =                    83
(PID.TID 0000.0001) %MON time_secondsf                =   8.3000000000000E+03
(PID.TID 0000.0001) %MON dynstat_eta_max              =   5.7976701512722E+00
(PID.TID 0000.0001) %MON dynstat_eta_min              =  -1.4200207803004E+01
(PID.TID 0000.0001) %MON dynstat_eta_mean             =  -2.5117563629465E+00
(PID.TID 0000.0001) %MON dynstat_eta_sd               =   4.9527970640554E+00
(PID.TID 0000.0001) %MON dynstat_eta_del2             =   2.0713996115123E-01
(PID.TID 0000.0001) %MON dynstat_uvel_max             =   1.4491158454391E-03
(PID.TID 0000.0001) %MON dynstat_uvel_min             =  -1.5682572556708E-03
(PID.TID 0000.0001) %MON dynstat_uvel_mean            =  -1.1771130151689E-06
(PID.TID 0000.0001) %MON dynstat_uvel_sd              =   5.9151056082589E-05
(PID.TID 0000.0001) %MON dynstat_uvel_del2            =   3.1199951735099E-07
(PID.TID 0000.0001) %MON dynstat_vvel_max             =   1.8219942102800E-03
(PID.TID 0000.0001) %MON dynstat_vvel_min             =  -1.3081659850247E-03
(PID.TID 0000.0001) %MON dynstat_vvel_mean            =   1.5929270152611E-04
(PID.TID 0000.0001) %MON dynstat_vvel_sd              =   1.4064048320773E-04
(PID.TID 0000.0001) %MON dynstat_vvel_del2            =   5.9564584431686E-07
(PID.TID 0000.0001) %MON dynstat_wvel_max             =   4.3650535737267E-04
(PID.TID 0000.0001) %MON dynstat_wvel_min             =  -3.4330099611554E-04
(PID.TID 0000.0001) %MON dynstat_wvel_mean            =   3.5925792534591E-07
(PID.TID 0000.0001) %MON dynstat_wvel_sd              =   5.5474976564030E-05
(PID.TID 0000.0001) %MON dynstat_wvel_del2            =   2.8969566911772E-07
(PID.TID 0000.0001) %MON dynstat_theta_max            =   1.2000000000000E+00
(PID.TID 0000.0001) %MON dynstat_theta_min            =  -1.0000000000000E+00
(PID.TID 0000.0001) %MON dynstat_theta_mean           =   5.6913621286627E-01
(PID.TID 0000.0001) %MON dynstat_theta_sd             =   8.6860126594692E-01
(PID.TID 0000.0001) %MON dynstat_theta_del2           =   3.0296042840194E-06
(PID.TID 0000.0001) %MON dynstat_salt_max             =   3.4700000000000E+01
(PID.TID 0000.0001) %MON dynstat_salt_min             =   3.4000000000000E+01
(PID.TID 0000.0001) %MON dynstat_salt_mean            =   3.4499268674200E+01
(PID.TID 0000.0001) %MON dynstat_salt_sd              =   2.7637265723127E-01
(PID.TID 0000.0001) %MON dynstat_salt_del2            =   9.6341281593239E-07
(PID.TID 0000.0001) %MON advcfl_uvel_max              =   1.5682572556708E-04
(PID.TID 0000.0001) %MON advcfl_vvel_max              =   1.8219942102800E-04
(PID.TID 0000.0001) %MON advcfl_wvel_max              =   2.1825267868633E-03
(PID.TID 0000.0001) %MON advcfl_W_hf_max              =   2.1825267868633E-03
(PID.TID 0000.0001) %MON pe_b_mean                    =  -8.3217366318430E-01
(PID.TID 0000.0001) %MON ke_max                       =   1.7151960958435E-06
(PID.TID 0000.0001) %MON ke_mean                      =   2.4232388742341E-08
(PID.TID 0000.0001) %MON ke_vol                       =   4.2725609632049E+12
(PID.TID 0000.0001) // =======================================================
(PID.TID 0000.0001) // End MONITOR dynamic field statistics
(PID.TID 0000.0001) // =======================================================
(PID.TID 0000.0001) // =======================================================
(PID.TID 0000.0001) // Begin OBCS MONITOR field statistics
(PID.TID 0000.0001) // =======================================================
(PID.TID 0000.0001) %MON obc_N_vVel_max               =   1.2257604415287E-04
(PID.TID 0000.0001) %MON obc_N_vVel_min               =   1.2257604415286E-04
(PID.TID 0000.0001) %MON obc_N_vVel_mean              =   1.2257604415286E-04
(PID.TID 0000.0001) %MON obc_N_vVel_sd                =   2.9273864019035E-11
(PID.TID 0000.0001) %MON obc_N_vVel_Int               =   8.0900189140889E+03
(PID.TID 0000.0001) // =======================================================
(PID.TID 0000.0001) // End OBCS MONITOR field statistics
(PID.TID 0000.0001) // =======================================================
 cg2d: Sum(rhs),rhsMax =   4.52352733578523E+00  2.99861063761819E+02
(PID.TID 0000.0001)      cg2d_init_res =   1.01240042803600E-05
(PID.TID 0000.0001)      cg2d_iters(min,last) =      -1      87
(PID.TID 0000.0001)      cg2d_last_res =   9.39707636710800E-12
(PID.TID 0000.0001) // =======================================================
(PID.TID 0000.0001) // Begin MONITOR dynamic field statistics
(PID.TID 0000.0001) // =======================================================
(PID.TID 0000.0001) %MON time_tsnumber                =                    84
(PID.TID 0000.0001) %MON time_secondsf                =   8.4000000000000E+03
(PID.TID 0000.0001) %MON dynstat_eta_max              =   5.7972802626757E+00
(PID.TID 0000.0001) %MON dynstat_eta_min              =  -1.4200456773679E+01
(PID.TID 0000.0001) %MON dynstat_eta_mean             =  -2.5119068867856E+00
(PID.TID 0000.0001) %MON dynstat_eta_sd               =   4.9528568874030E+00
(PID.TID 0000.0001) %MON dynstat_eta_del2             =   2.0713996191890E-01
(PID.TID 0000.0001) %MON dynstat_uvel_max             =   1.4738951790356E-03
(PID.TID 0000.0001) %MON dynstat_uvel_min             =  -1.5788034444855E-03
(PID.TID 0000.0001) %MON dynstat_uvel_mean            =  -9.0098119629845E-07
(PID.TID 0000.0001) %MON dynstat_uvel_sd              =   5.9707533751621E-05
(PID.TID 0000.0001) %MON dynstat_uvel_del2            =   3.1538473844967E-07
(PID.TID 0000.0001) %MON dynstat_vvel_max             =   1.8647194540318E-03
(PID.TID 0000.0001) %MON dynstat_vvel_min             =  -1.3252976372833E-03
(PID.TID 0000.0001) %MON dynstat_vvel_mean            =   1.7244243542192E-04
(PID.TID 0000.0001) %MON dynstat_vvel_sd              =   1.4060833765352E-04
(PID.TID 0000.0001) %MON dynstat_vvel_del2            =   5.9242633731018E-07
(PID.TID 0000.0001) %MON dynstat_wvel_max             =   4.6056420582224E-04
(PID.TID 0000.0001) %MON dynstat_wvel_min             =  -3.4133531889990E-04
(PID.TID 0000.0001) %MON dynstat_wvel_mean            =   3.3593336753679E-07
(PID.TID 0000.0001) %MON dynstat_wvel_sd              =   5.4731246454759E-05
(PID.TID 0000.0001) %MON dynstat_wvel_del2            =   2.8170317632605E-07
(PID.TID 0000.0001) %MON dynstat_theta_max            =   1.2000000000000E+00
(PID.TID 0000.0001) %MON dynstat_theta_min            =  -1.0000000000000E+00
(PID.TID 0000.0001) %MON dynstat_theta_mean           =   5.6913601556843E-01
(PID.TID 0000.0001) %MON dynstat_theta_sd             =   8.6860110280964E-01
(PID.TID 0000.0001) %MON dynstat_theta_del2           =   3.0176281768203E-06
(PID.TID 0000.0001) %MON dynstat_salt_max             =   3.4700000000000E+01
(PID.TID 0000.0001) %MON dynstat_salt_min             =   3.4000000000000E+01
(PID.TID 0000.0001) %MON dynstat_salt_mean            =   3.4499268590394E+01
(PID.TID 0000.0001) %MON dynstat_salt_sd              =   2.7637259961983E-01
(PID.TID 0000.0001) %MON dynstat_salt_del2            =   9.5958189683213E-07
(PID.TID 0000.0001) %MON advcfl_uvel_max              =   1.5788034444855E-04
(PID.TID 0000.0001) %MON advcfl_vvel_max              =   1.8647194540318E-04
(PID.TID 0000.0001) %MON advcfl_wvel_max              =   2.3028210291112E-03
(PID.TID 0000.0001) %MON advcfl_W_hf_max              =   2.3028210291112E-03
(PID.TID 0000.0001) %MON pe_b_mean                    =  -8.3221791658520E-01
(PID.TID 0000.0001) %MON ke_max                       =   1.7726359490265E-06
(PID.TID 0000.0001) %MON ke_mean                      =   2.6425998887834E-08
(PID.TID 0000.0001) %MON ke_vol                       =   4.2725601672041E+12
(PID.TID 0000.0001) // =======================================================
(PID.TID 0000.0001) // End MONITOR dynamic field statistics
(PID.TID 0000.0001) // =======================================================
(PID.TID 0000.0001) // =======================================================
(PID.TID 0000.0001) // Begin OBCS MONITOR field statistics
(PID.TID 0000.0001) // =======================================================
(PID.TID 0000.0001) %MON obc_N_vVel_max               =   1.3744131930778E-04
(PID.TID 0000.0001) %MON obc_N_vVel_min               =   1.3744131930777E-04
(PID.TID 0000.0001) %MON obc_N_vVel_mean              =   1.3744131930777E-04
(PID.TID 0000.0001) %MON obc_N_vVel_sd                =   1.4889069956321E-11
(PID.TID 0000.0001) %MON obc_N_vVel_Int               =   9.0711270743131E+03
(PID.TID 0000.0001) // =======================================================
(PID.TID 0000.0001) // End OBCS MONITOR field statistics
(PID.TID 0000.0001) // =======================================================
 cg2d: Sum(rhs),rhsMax =   4.52381935613462E+00  2.99861088903910E+02
(PID.TID 0000.0001)      cg2d_init_res =   1.00867272134493E-05
(PID.TID 0000.0001)      cg2d_iters(min,last) =      -1      87
(PID.TID 0000.0001)      cg2d_last_res =   9.40713071584619E-12
(PID.TID 0000.0001) // =======================================================
(PID.TID 0000.0001) // Begin MONITOR dynamic field statistics
(PID.TID 0000.0001) // =======================================================
(PID.TID 0000.0001) %MON time_tsnumber                =                    85
(PID.TID 0000.0001) %MON time_secondsf                =   8.5000000000000E+03
(PID.TID 0000.0001) %MON dynstat_eta_max              =   5.7968813398383E+00
(PID.TID 0000.0001) %MON dynstat_eta_min              =  -1.4200717286591E+01
(PID.TID 0000.0001) %MON dynstat_eta_mean             =  -2.5120692558058E+00
(PID.TID 0000.0001) %MON dynstat_eta_sd               =   4.9529167190612E+00
(PID.TID 0000.0001) %MON dynstat_eta_del2             =   2.0713996276944E-01
(PID.TID 0000.0001) %MON dynstat_uvel_max             =   1.4984069838704E-03
(PID.TID 0000.0001) %MON dynstat_uvel_min             =  -1.5883092295805E-03
(PID.TID 0000.0001) %MON dynstat_uvel_mean            =  -6.1286395287961E-07
(PID.TID 0000.0001) %MON dynstat_uvel_sd              =   6.0254435992935E-05
(PID.TID 0000.0001) %MON dynstat_uvel_del2            =   3.1867401933107E-07
(PID.TID 0000.0001) %MON dynstat_vvel_max             =   1.9007897908931E-03
(PID.TID 0000.0001) %MON dynstat_vvel_min             =  -1.3444133771596E-03
(PID.TID 0000.0001) %MON dynstat_vvel_mean            =   1.8057650340558E-04
(PID.TID 0000.0001) %MON dynstat_vvel_sd              =   1.4033135477476E-04
(PID.TID 0000.0001) %MON dynstat_vvel_del2            =   5.9247407631099E-07
(PID.TID 0000.0001) %MON dynstat_wvel_max             =   4.7492929129810E-04
(PID.TID 0000.0001) %MON dynstat_wvel_min             =  -3.5768867354624E-04
(PID.TID 0000.0001) %MON dynstat_wvel_mean            =   3.0537978115937E-07
(PID.TID 0000.0001) %MON dynstat_wvel_sd              =   5.4088014327460E-05
(PID.TID 0000.0001) %MON dynstat_wvel_del2            =   2.7620124856979E-07
(PID.TID 0000.0001) %MON dynstat_theta_max            =   1.2000000000000E+00
(PID.TID 0000.0001) %MON dynstat_theta_min            =  -1.0000000000000E+00
(PID.TID 0000.0001) %MON dynstat_theta_mean           =   5.6913582219333E-01
(PID.TID 0000.0001) %MON dynstat_theta_sd             =   8.6860093879859E-01
(PID.TID 0000.0001) %MON dynstat_theta_del2           =   3.0039574548188E-06
(PID.TID 0000.0001) %MON dynstat_salt_max             =   3.4700000000000E+01
(PID.TID 0000.0001) %MON dynstat_salt_min             =   3.4000000000000E+01
(PID.TID 0000.0001) %MON dynstat_salt_mean            =   3.4499268507837E+01
(PID.TID 0000.0001) %MON dynstat_salt_sd              =   2.7637254173657E-01
(PID.TID 0000.0001) %MON dynstat_salt_del2            =   9.5521056432969E-07
(PID.TID 0000.0001) %MON advcfl_uvel_max              =   1.5883092295805E-04
(PID.TID 0000.0001) %MON advcfl_vvel_max              =   1.9007897908931E-04
(PID.TID 0000.0001) %MON advcfl_wvel_max              =   2.3746464564905E-03
(PID.TID 0000.0001) %MON advcfl_W_hf_max              =   2.3746464564905E-03
(PID.TID 0000.0001) %MON pe_b_mean                    =  -8.3226393601663E-01
(PID.TID 0000.0001) %MON ke_max                       =   1.8293152182272E-06
(PID.TID 0000.0001) %MON ke_mean                      =   2.7842892559513E-08
(PID.TID 0000.0001) %MON ke_vol                       =   4.2725592730925E+12
(PID.TID 0000.0001) // =======================================================
(PID.TID 0000.0001) // End MONITOR dynamic field statistics
(PID.TID 0000.0001) // =======================================================
(PID.TID 0000.0001) // =======================================================
(PID.TID 0000.0001) // Begin OBCS MONITOR field statistics
(PID.TID 0000.0001) // =======================================================
(PID.TID 0000.0001) %MON obc_N_vVel_max               =   1.4810198019078E-04
(PID.TID 0000.0001) %MON obc_N_vVel_min               =   1.4810198019077E-04
(PID.TID 0000.0001) %MON obc_N_vVel_mean              =   1.4810198019077E-04
(PID.TID 0000.0001) %MON obc_N_vVel_sd                =   3.2437227673885E-11
(PID.TID 0000.0001) %MON obc_N_vVel_Int               =   9.7747306925909E+03
(PID.TID 0000.0001) // =======================================================
(PID.TID 0000.0001) // End OBCS MONITOR field statistics
(PID.TID 0000.0001) // =======================================================
 cg2d: Sum(rhs),rhsMax =   4.52412431872763E+00  2.99861110411308E+02
(PID.TID 0000.0001)      cg2d_init_res =   1.00649961977313E-05
(PID.TID 0000.0001)      cg2d_iters(min,last) =      -1      87
(PID.TID 0000.0001)      cg2d_last_res =   8.71177413867161E-12
(PID.TID 0000.0001) // =======================================================
(PID.TID 0000.0001) // Begin MONITOR dynamic field statistics
(PID.TID 0000.0001) // =======================================================
(PID.TID 0000.0001) %MON time_tsnumber                =                    86
(PID.TID 0000.0001) %MON time_secondsf                =   8.6000000000000E+03
(PID.TID 0000.0001) %MON dynstat_eta_max              =   5.7964842395541E+00
(PID.TID 0000.0001) %MON dynstat_eta_min              =  -1.4200982312719E+01
(PID.TID 0000.0001) %MON dynstat_eta_mean             =  -2.5122387812083E+00
(PID.TID 0000.0001) %MON dynstat_eta_sd               =   4.9529750946198E+00
(PID.TID 0000.0001) %MON dynstat_eta_del2             =   2.0713996371417E-01
(PID.TID 0000.0001) %MON dynstat_uvel_max             =   1.5226310699070E-03
(PID.TID 0000.0001) %MON dynstat_uvel_min             =  -1.5967690832470E-03
(PID.TID 0000.0001) %MON dynstat_uvel_mean            =  -3.2343876661666E-07
(PID.TID 0000.0001) %MON dynstat_uvel_sd              =   6.0788494341097E-05
(PID.TID 0000.0001) %MON dynstat_uvel_del2            =   3.2186882376236E-07
(PID.TID 0000.0001) %MON dynstat_vvel_max             =   1.9304348388083E-03
(PID.TID 0000.0001) %MON dynstat_vvel_min             =  -1.3654225492488E-03
(PID.TID 0000.0001) %MON dynstat_vvel_mean            =   1.8379942416343E-04
(PID.TID 0000.0001) %MON dynstat_vvel_sd              =   1.3986815490145E-04
(PID.TID 0000.0001) %MON dynstat_vvel_del2            =   5.9590681562502E-07
(PID.TID 0000.0001) %MON dynstat_wvel_max             =   4.7928035352102E-04
(PID.TID 0000.0001) %MON dynstat_wvel_min             =  -3.7063825238583E-04
(PID.TID 0000.0001) %MON dynstat_wvel_mean            =   2.6888073248231E-07
(PID.TID 0000.0001) %MON dynstat_wvel_sd              =   5.3611398456840E-05
(PID.TID 0000.0001) %MON dynstat_wvel_del2            =   2.7383478873248E-07
(PID.TID 0000.0001) %MON dynstat_theta_max            =   1.2000000000000E+00
(PID.TID 0000.0001) %MON dynstat_theta_min            =  -1.0000000000000E+00
(PID.TID 0000.0001) %MON dynstat_theta_mean           =   5.6913563083473E-01
(PID.TID 0000.0001) %MON dynstat_theta_sd             =   8.6860077480164E-01
(PID.TID 0000.0001) %MON dynstat_theta_del2           =   2.9882789175753E-06
(PID.TID 0000.0001) %MON dynstat_salt_max             =   3.4700000000000E+01
(PID.TID 0000.0001) %MON dynstat_salt_min             =   3.4000000000000E+01
(PID.TID 0000.0001) %MON dynstat_salt_mean            =   3.4499268425922E+01
(PID.TID 0000.0001) %MON dynstat_salt_sd              =   2.7637248386316E-01
(PID.TID 0000.0001) %MON dynstat_salt_del2            =   9.5019867938984E-07
(PID.TID 0000.0001) %MON advcfl_uvel_max              =   1.5967690832470E-04
(PID.TID 0000.0001) %MON advcfl_vvel_max              =   1.9304348388083E-04
(PID.TID 0000.0001) %MON advcfl_wvel_max              =   2.3964017676051E-03
(PID.TID 0000.0001) %MON advcfl_W_hf_max              =   2.3964017676051E-03
(PID.TID 0000.0001) %MON pe_b_mean                    =  -8.3231049710156E-01
(PID.TID 0000.0001) %MON ke_max                       =   1.8851872154518E-06
(PID.TID 0000.0001) %MON ke_mean                      =   2.8389150872500E-08
(PID.TID 0000.0001) %MON ke_vol                       =   4.2725583086205E+12
(PID.TID 0000.0001) // =======================================================
(PID.TID 0000.0001) // End MONITOR dynamic field statistics
(PID.TID 0000.0001) // =======================================================
(PID.TID 0000.0001) // =======================================================
(PID.TID 0000.0001) // Begin OBCS MONITOR field statistics
(PID.TID 0000.0001) // =======================================================
(PID.TID 0000.0001) %MON obc_N_vVel_max               =   1.5454272005055E-04
(PID.TID 0000.0001) %MON obc_N_vVel_min               =   1.5454272005055E-04
(PID.TID 0000.0001) %MON obc_N_vVel_mean              =   1.5454272005055E-04
(PID.TID 0000.0001) %MON obc_N_vVel_sd                =  -5.1285197978288E-22
(PID.TID 0000.0001) %MON obc_N_vVel_Int               =   1.0199819523337E+04
(PID.TID 0000.0001) // =======================================================
(PID.TID 0000.0001) // End OBCS MONITOR field statistics
(PID.TID 0000.0001) // =======================================================
 cg2d: Sum(rhs),rhsMax =   4.52443394647417E+00  2.99861130301632E+02
(PID.TID 0000.0001)      cg2d_init_res =   1.00709794224495E-05
(PID.TID 0000.0001)      cg2d_iters(min,last) =      -1      85
(PID.TID 0000.0001)      cg2d_last_res =   8.41864908309515E-12
(PID.TID 0000.0001) // =======================================================
(PID.TID 0000.0001) // Begin MONITOR dynamic field statistics
(PID.TID 0000.0001) // =======================================================
(PID.TID 0000.0001) %MON time_tsnumber                =                    87
(PID.TID 0000.0001) %MON time_secondsf                =   8.7000000000000E+03
(PID.TID 0000.0001) %MON dynstat_eta_max              =   5.7960990547240E+00
(PID.TID 0000.0001) %MON dynstat_eta_min              =  -1.4201245162684E+01
(PID.TID 0000.0001) %MON dynstat_eta_mean             =  -2.5124108836386E+00
(PID.TID 0000.0001) %MON dynstat_eta_sd               =   4.9530306817835E+00
(PID.TID 0000.0001) %MON dynstat_eta_del2             =   2.0713996476147E-01
(PID.TID 0000.0001) %MON dynstat_uvel_max             =   1.5465474813148E-03
(PID.TID 0000.0001) %MON dynstat_uvel_min             =  -1.6041798684912E-03
(PID.TID 0000.0001) %MON dynstat_uvel_mean            =  -4.3200646527051E-08
(PID.TID 0000.0001) %MON dynstat_uvel_sd              =   6.1307535311322E-05
(PID.TID 0000.0001) %MON dynstat_uvel_del2            =   3.2497065288459E-07
(PID.TID 0000.0001) %MON dynstat_vvel_max             =   1.9540331752008E-03
(PID.TID 0000.0001) %MON dynstat_vvel_min             =  -1.3881852429112E-03
(PID.TID 0000.0001) %MON dynstat_vvel_mean            =   1.8233964703749E-04
(PID.TID 0000.0001) %MON dynstat_vvel_sd              =   1.3928841803996E-04
(PID.TID 0000.0001) %MON dynstat_vvel_del2            =   6.0238686597221E-07
(PID.TID 0000.0001) %MON dynstat_wvel_max             =   4.8093727462903E-04
(PID.TID 0000.0001) %MON dynstat_wvel_min             =  -3.8903590355716E-04
(PID.TID 0000.0001) %MON dynstat_wvel_mean            =   2.2778902217756E-07
(PID.TID 0000.0001) %MON dynstat_wvel_sd              =   5.3342963126682E-05
(PID.TID 0000.0001) %MON dynstat_wvel_del2            =   2.7476984342064E-07
(PID.TID 0000.0001) %MON dynstat_theta_max            =   1.2000000000000E+00
(PID.TID 0000.0001) %MON dynstat_theta_min            =  -1.0000000000000E+00
(PID.TID 0000.0001) %MON dynstat_theta_mean           =   5.6913543965259E-01
(PID.TID 0000.0001) %MON dynstat_theta_sd             =   8.6860061174150E-01
(PID.TID 0000.0001) %MON dynstat_theta_del2           =   2.9705321605667E-06
(PID.TID 0000.0001) %MON dynstat_salt_max             =   3.4700000000000E+01
(PID.TID 0000.0001) %MON dynstat_salt_min             =   3.4000000000000E+01
(PID.TID 0000.0001) %MON dynstat_salt_mean            =   3.4499268344064E+01
(PID.TID 0000.0001) %MON dynstat_salt_sd              =   2.7637242629209E-01
(PID.TID 0000.0001) %MON dynstat_salt_del2            =   9.4452662224621E-07
(PID.TID 0000.0001) %MON advcfl_uvel_max              =   1.6041798684912E-04
(PID.TID 0000.0001) %MON advcfl_vvel_max              =   1.9540331752008E-04
(PID.TID 0000.0001) %MON advcfl_wvel_max              =   2.4046863731451E-03
(PID.TID 0000.0001) %MON advcfl_W_hf_max              =   2.4046863731451E-03
(PID.TID 0000.0001) %MON pe_b_mean                    =  -8.3235643943612E-01
(PID.TID 0000.0001) %MON ke_max                       =   1.9402457639268E-06
(PID.TID 0000.0001) %MON ke_mean                      =   2.8069241191499E-08
(PID.TID 0000.0001) %MON ke_vol                       =   4.2725573016396E+12
(PID.TID 0000.0001) // =======================================================
(PID.TID 0000.0001) // End MONITOR dynamic field statistics
(PID.TID 0000.0001) // =======================================================
(PID.TID 0000.0001) // =======================================================
(PID.TID 0000.0001) // Begin OBCS MONITOR field statistics
(PID.TID 0000.0001) // =======================================================
(PID.TID 0000.0001) %MON obc_N_vVel_max               =   1.5686203860474E-04
(PID.TID 0000.0001) %MON obc_N_vVel_min               =   1.5686203860474E-04
(PID.TID 0000.0001) %MON obc_N_vVel_mean              =   1.5686203860474E-04
(PID.TID 0000.0001) %MON obc_N_vVel_sd                =   3.6786784068966E-11
(PID.TID 0000.0001) %MON obc_N_vVel_Int               =   1.0352894547913E+04
(PID.TID 0000.0001) // =======================================================
(PID.TID 0000.0001) // End OBCS MONITOR field statistics
(PID.TID 0000.0001) // =======================================================
 cg2d: Sum(rhs),rhsMax =   4.52474036815714E+00  2.99861150521080E+02
(PID.TID 0000.0001)      cg2d_init_res =   1.01134596355061E-05
(PID.TID 0000.0001)      cg2d_iters(min,last) =      -1      84
(PID.TID 0000.0001)      cg2d_last_res =   8.88305422009491E-12
(PID.TID 0000.0001) // =======================================================
(PID.TID 0000.0001) // Begin MONITOR dynamic field statistics
(PID.TID 0000.0001) // =======================================================
(PID.TID 0000.0001) %MON time_tsnumber                =                    88
(PID.TID 0000.0001) %MON time_secondsf                =   8.8000000000000E+03
(PID.TID 0000.0001) %MON dynstat_eta_max              =   5.7957349015313E+00
(PID.TID 0000.0001) %MON dynstat_eta_min              =  -1.4201499644061E+01
(PID.TID 0000.0001) %MON dynstat_eta_mean             =  -2.5125812085274E+00
(PID.TID 0000.0001) %MON dynstat_eta_sd               =   4.9530823074982E+00
(PID.TID 0000.0001) %MON dynstat_eta_del2             =   2.0713996591887E-01
(PID.TID 0000.0001) %MON dynstat_uvel_max             =   1.5701381908606E-03
(PID.TID 0000.0001) %MON dynstat_uvel_min             =  -1.6105409509484E-03
(PID.TID 0000.0001) %MON dynstat_uvel_mean            =   2.1817011506301E-07
(PID.TID 0000.0001) %MON dynstat_uvel_sd              =   6.1810323480596E-05
(PID.TID 0000.0001) %MON dynstat_uvel_del2            =   3.2798108431591E-07
(PID.TID 0000.0001) %MON dynstat_vvel_max             =   1.9720932152705E-03
(PID.TID 0000.0001) %MON dynstat_vvel_min             =  -1.4125183888787E-03
(PID.TID 0000.0001) %MON dynstat_vvel_mean            =   1.7653544708687E-04
(PID.TID 0000.0001) %MON dynstat_vvel_sd              =   1.3866293477560E-04
(PID.TID 0000.0001) %MON dynstat_vvel_del2            =   6.1119733706513E-07
(PID.TID 0000.0001) %MON dynstat_wvel_max             =   4.7833821144920E-04
(PID.TID 0000.0001) %MON dynstat_wvel_min             =  -4.0209825333968E-04
(PID.TID 0000.0001) %MON dynstat_wvel_mean            =   1.8348680017880E-07
(PID.TID 0000.0001) %MON dynstat_wvel_sd              =   5.3294151728196E-05
(PID.TID 0000.0001) %MON dynstat_wvel_del2            =   2.7866525614112E-07
(PID.TID 0000.0001) %MON dynstat_theta_max            =   1.2000000000000E+00
(PID.TID 0000.0001) %MON dynstat_theta_min            =  -1.0000000000000E+00
(PID.TID 0000.0001) %MON dynstat_theta_mean           =   5.6913524691831E-01
(PID.TID 0000.0001) %MON dynstat_theta_sd             =   8.6860045052204E-01
(PID.TID 0000.0001) %MON dynstat_theta_del2           =   2.9509165047416E-06
(PID.TID 0000.0001) %MON dynstat_salt_max             =   3.4700000000000E+01
(PID.TID 0000.0001) %MON dynstat_salt_min             =   3.4000000000000E+01
(PID.TID 0000.0001) %MON dynstat_salt_mean            =   3.4499268261713E+01
(PID.TID 0000.0001) %MON dynstat_salt_sd              =   2.7637236930993E-01
(PID.TID 0000.0001) %MON dynstat_salt_del2            =   9.3825751351913E-07
(PID.TID 0000.0001) %MON advcfl_uvel_max              =   1.6105409509484E-04
(PID.TID 0000.0001) %MON advcfl_vvel_max              =   1.9720932152705E-04
(PID.TID 0000.0001) %MON advcfl_wvel_max              =   2.3916910572460E-03
(PID.TID 0000.0001) %MON advcfl_W_hf_max              =   2.3916910572460E-03
(PID.TID 0000.0001) %MON pe_b_mean                    =  -8.3240069329337E-01
(PID.TID 0000.0001) %MON ke_max                       =   1.9945211091952E-06
(PID.TID 0000.0001) %MON ke_mean                      =   2.6973210782065E-08
(PID.TID 0000.0001) %MON ke_vol                       =   4.2725562793512E+12
(PID.TID 0000.0001) // =======================================================
(PID.TID 0000.0001) // End MONITOR dynamic field statistics
(PID.TID 0000.0001) // =======================================================
(PID.TID 0000.0001) // =======================================================
(PID.TID 0000.0001) // Begin OBCS MONITOR field statistics
(PID.TID 0000.0001) // =======================================================
(PID.TID 0000.0001) %MON obc_N_vVel_max               =   1.5526224278543E-04
(PID.TID 0000.0001) %MON obc_N_vVel_min               =   1.5526224278543E-04
(PID.TID 0000.0001) %MON obc_N_vVel_mean              =   1.5526224278543E-04
(PID.TID 0000.0001) %MON obc_N_vVel_sd                =   1.3853010579376E-11
(PID.TID 0000.0001) %MON obc_N_vVel_Int               =   1.0247308023839E+04
(PID.TID 0000.0001) // =======================================================
(PID.TID 0000.0001) // End OBCS MONITOR field statistics
(PID.TID 0000.0001) // =======================================================
 cg2d: Sum(rhs),rhsMax =   4.52503630254343E+00  2.99861172887268E+02
(PID.TID 0000.0001)      cg2d_init_res =   1.01968247572457E-05
(PID.TID 0000.0001)      cg2d_iters(min,last) =      -1      86
(PID.TID 0000.0001)      cg2d_last_res =   9.69620878518882E-12
(PID.TID 0000.0001) // =======================================================
(PID.TID 0000.0001) // Begin MONITOR dynamic field statistics
(PID.TID 0000.0001) // =======================================================
(PID.TID 0000.0001) %MON time_tsnumber                =                    89
(PID.TID 0000.0001) %MON time_secondsf                =   8.9000000000000E+03
(PID.TID 0000.0001) %MON dynstat_eta_max              =   5.7953997439275E+00
(PID.TID 0000.0001) %MON dynstat_eta_min              =  -1.4201740204486E+01
(PID.TID 0000.0001) %MON dynstat_eta_mean             =  -2.5127457278484E+00
(PID.TID 0000.0001) %MON dynstat_eta_sd               =   4.9531289788138E+00
(PID.TID 0000.0001) %MON dynstat_eta_del2             =   2.0713996718942E-01
(PID.TID 0000.0001) %MON dynstat_uvel_max             =   1.5933884527328E-03
(PID.TID 0000.0001) %MON dynstat_uvel_min             =  -1.6158543483940E-03
(PID.TID 0000.0001) %MON dynstat_uvel_mean            =   4.5236954459436E-07
(PID.TID 0000.0001) %MON dynstat_uvel_sd              =   6.2296376088267E-05
(PID.TID 0000.0001) %MON dynstat_uvel_del2            =   3.3090179796641E-07
(PID.TID 0000.0001) %MON dynstat_vvel_max             =   1.9852317966933E-03
(PID.TID 0000.0001) %MON dynstat_vvel_min             =  -1.4388225680282E-03
(PID.TID 0000.0001) %MON dynstat_vvel_mean            =   1.6681880985471E-04
(PID.TID 0000.0001) %MON dynstat_vvel_sd              =   1.3805484086263E-04
(PID.TID 0000.0001) %MON dynstat_vvel_del2            =   6.2137526141689E-07
(PID.TID 0000.0001) %MON dynstat_wvel_max             =   4.6536344625251E-04
(PID.TID 0000.0001) %MON dynstat_wvel_min             =  -4.0938257308477E-04
(PID.TID 0000.0001) %MON dynstat_wvel_mean            =   1.3734822948584E-07
(PID.TID 0000.0001) %MON dynstat_wvel_sd              =   5.3445785167598E-05
(PID.TID 0000.0001) %MON dynstat_wvel_del2            =   2.8477070642505E-07
(PID.TID 0000.0001) %MON dynstat_theta_max            =   1.2000000000000E+00
(PID.TID 0000.0001) %MON dynstat_theta_min            =  -1.0000000000000E+00
(PID.TID 0000.0001) %MON dynstat_theta_mean           =   5.6913505105409E-01
(PID.TID 0000.0001) %MON dynstat_theta_sd             =   8.6860029143548E-01
(PID.TID 0000.0001) %MON dynstat_theta_del2           =   2.9298463003507E-06
(PID.TID 0000.0001) %MON dynstat_salt_max             =   3.4700000000000E+01
(PID.TID 0000.0001) %MON dynstat_salt_min             =   3.4000000000000E+01
(PID.TID 0000.0001) %MON dynstat_salt_mean            =   3.4499268178367E+01
(PID.TID 0000.0001) %MON dynstat_salt_sd              =   2.7637231300895E-01
(PID.TID 0000.0001) %MON dynstat_salt_del2            =   9.3152300072643E-07
(PID.TID 0000.0001) %MON advcfl_uvel_max              =   1.6158543483940E-04
(PID.TID 0000.0001) %MON advcfl_vvel_max              =   1.9852317966933E-04
(PID.TID 0000.0001) %MON advcfl_wvel_max              =   2.3268172312625E-03
(PID.TID 0000.0001) %MON advcfl_W_hf_max              =   2.3268172312625E-03
(PID.TID 0000.0001) %MON pe_b_mean                    =  -8.3244230219200E-01
(PID.TID 0000.0001) %MON ke_max                       =   2.0480744565246E-06
(PID.TID 0000.0001) %MON ke_mean                      =   2.5256906368209E-08
(PID.TID 0000.0001) %MON ke_vol                       =   4.2725552676213E+12
(PID.TID 0000.0001) // =======================================================
(PID.TID 0000.0001) // End MONITOR dynamic field statistics
(PID.TID 0000.0001) // =======================================================
(PID.TID 0000.0001) // =======================================================
(PID.TID 0000.0001) // Begin OBCS MONITOR field statistics
(PID.TID 0000.0001) // =======================================================
(PID.TID 0000.0001) %MON obc_N_vVel_max               =   1.5003722138349E-04
(PID.TID 0000.0001) %MON obc_N_vVel_min               =   1.5003722138349E-04
(PID.TID 0000.0001) %MON obc_N_vVel_mean              =   1.5003722138349E-04
(PID.TID 0000.0001) %MON obc_N_vVel_sd                =   3.5177580877305E-11
(PID.TID 0000.0001) %MON obc_N_vVel_Int               =   9.9024566113105E+03
(PID.TID 0000.0001) // =======================================================
(PID.TID 0000.0001) // End OBCS MONITOR field statistics
(PID.TID 0000.0001) // =======================================================
 cg2d: Sum(rhs),rhsMax =   4.52531521435263E+00  2.99861199047896E+02
(PID.TID 0000.0001)      cg2d_init_res =   1.03188436785257E-05
(PID.TID 0000.0001)      cg2d_iters(min,last) =      -1      87
(PID.TID 0000.0001)      cg2d_last_res =   8.46562007166796E-12
(PID.TID 0000.0001) // =======================================================
(PID.TID 0000.0001) // Begin MONITOR dynamic field statistics
(PID.TID 0000.0001) // =======================================================
(PID.TID 0000.0001) %MON time_tsnumber                =                    90
(PID.TID 0000.0001) %MON time_secondsf                =   9.0000000000000E+03
(PID.TID 0000.0001) %MON dynstat_eta_max              =   5.7951002620312E+00
(PID.TID 0000.0001) %MON dynstat_eta_min              =  -1.4201962021804E+01
(PID.TID 0000.0001) %MON dynstat_eta_mean             =  -2.5129008263805E+00
(PID.TID 0000.0001) %MON dynstat_eta_sd               =   4.9531698978710E+00
(PID.TID 0000.0001) %MON dynstat_eta_del2             =   2.0713996857482E-01
(PID.TID 0000.0001) %MON dynstat_uvel_max             =   1.6162878863817E-03
(PID.TID 0000.0001) %MON dynstat_uvel_min             =  -1.6301447101554E-03
(PID.TID 0000.0001) %MON dynstat_uvel_mean            =   6.5283793303559E-07
(PID.TID 0000.0001) %MON dynstat_uvel_sd              =   6.2765756515314E-05
(PID.TID 0000.0001) %MON dynstat_uvel_del2            =   3.3373458938628E-07
(PID.TID 0000.0001) %MON dynstat_vvel_max             =   1.9941516496793E-03
(PID.TID 0000.0001) %MON dynstat_vvel_min             =  -1.4694053811333E-03
(PID.TID 0000.0001) %MON dynstat_vvel_mean            =   1.5369787942262E-04
(PID.TID 0000.0001) %MON dynstat_vvel_sd              =   1.3751291928041E-04
(PID.TID 0000.0001) %MON dynstat_vvel_del2            =   6.3186460831433E-07
(PID.TID 0000.0001) %MON dynstat_wvel_max             =   4.4244964325191E-04
(PID.TID 0000.0001) %MON dynstat_wvel_min             =  -4.1054087707063E-04
(PID.TID 0000.0001) %MON dynstat_wvel_mean            =   9.0705699530870E-08
(PID.TID 0000.0001) %MON dynstat_wvel_sd              =   5.3752755597401E-05
(PID.TID 0000.0001) %MON dynstat_wvel_del2            =   2.9210500577531E-07
(PID.TID 0000.0001) %MON dynstat_theta_max            =   1.2000000000000E+00
(PID.TID 0000.0001) %MON dynstat_theta_min            =  -1.0000000000000E+00
(PID.TID 0000.0001) %MON dynstat_theta_mean           =   5.6913485066593E-01
(PID.TID 0000.0001) %MON dynstat_theta_sd             =   8.6860013486089E-01
(PID.TID 0000.0001) %MON dynstat_theta_del2           =   2.9078727974132E-06
(PID.TID 0000.0001) %MON dynstat_salt_max             =   3.4700000000000E+01
(PID.TID 0000.0001) %MON dynstat_salt_min             =   3.4000000000000E+01
(PID.TID 0000.0001) %MON dynstat_salt_mean            =   3.4499268093582E+01
(PID.TID 0000.0001) %MON dynstat_salt_sd              =   2.7637225750843E-01
(PID.TID 0000.0001) %MON dynstat_salt_del2            =   9.2449840790505E-07
(PID.TID 0000.0001) %MON advcfl_uvel_max              =   1.6301447101554E-04
(PID.TID 0000.0001) %MON advcfl_vvel_max              =   1.9941516496793E-04
(PID.TID 0000.0001) %MON advcfl_wvel_max              =   2.2122482162595E-03
(PID.TID 0000.0001) %MON advcfl_W_hf_max              =   2.2122482162595E-03
(PID.TID 0000.0001) %MON pe_b_mean                    =  -8.3248044100718E-01
(PID.TID 0000.0001) %MON ke_max                       =   2.1009913858607E-06
(PID.TID 0000.0001) %MON ke_mean                      =   2.3118117108813E-08
(PID.TID 0000.0001) %MON ke_vol                       =   4.2725542903766E+12
(PID.TID 0000.0001) // =======================================================
(PID.TID 0000.0001) // End MONITOR dynamic field statistics
(PID.TID 0000.0001) // =======================================================
(PID.TID 0000.0001) // =======================================================
(PID.TID 0000.0001) // Begin OBCS MONITOR field statistics
(PID.TID 0000.0001) // =======================================================
(PID.TID 0000.0001) %MON obc_N_vVel_max               =   1.4155849916624E-04
(PID.TID 0000.0001) %MON obc_N_vVel_min               =   1.4155849916624E-04
(PID.TID 0000.0001) %MON obc_N_vVel_mean              =   1.4155849916624E-04
(PID.TID 0000.0001) %MON obc_N_vVel_sd                =   3.0164526745970E-11
(PID.TID 0000.0001) %MON obc_N_vVel_Int               =   9.3428609449719E+03
(PID.TID 0000.0001) // =======================================================
(PID.TID 0000.0001) // End OBCS MONITOR field statistics
(PID.TID 0000.0001) // =======================================================
 cg2d: Sum(rhs),rhsMax =   4.52557144011007E+00  2.99861230438139E+02
(PID.TID 0000.0001)      cg2d_init_res =   1.04724153088538E-05
(PID.TID 0000.0001)      cg2d_iters(min,last) =      -1      87
(PID.TID 0000.0001)      cg2d_last_res =   8.14469097728206E-12
(PID.TID 0000.0001) // =======================================================
(PID.TID 0000.0001) // Begin MONITOR dynamic field statistics
(PID.TID 0000.0001) // =======================================================
(PID.TID 0000.0001) %MON time_tsnumber                =                    91
(PID.TID 0000.0001) %MON time_secondsf                =   9.1000000000000E+03
(PID.TID 0000.0001) %MON dynstat_eta_max              =   5.7948417569405E+00
(PID.TID 0000.0001) %MON dynstat_eta_min              =  -1.4202161102034E+01
(PID.TID 0000.0001) %MON dynstat_eta_mean             =  -2.5130433712354E+00
(PID.TID 0000.0001) %MON dynstat_eta_sd               =   4.9532044704292E+00
(PID.TID 0000.0001) %MON dynstat_eta_del2             =   2.0713997007331E-01
(PID.TID 0000.0001) %MON dynstat_uvel_max             =   1.6388312877389E-03
(PID.TID 0000.0001) %MON dynstat_uvel_min             =  -1.6524842576366E-03
(PID.TID 0000.0001) %MON dynstat_uvel_mean            =   8.1498809994554E-07
(PID.TID 0000.0001) %MON dynstat_uvel_sd              =   6.3218870566330E-05
(PID.TID 0000.0001) %MON dynstat_uvel_del2            =   3.3648137198722E-07
(PID.TID 0000.0001) %MON dynstat_vvel_max             =   1.9996176202994E-03
(PID.TID 0000.0001) %MON dynstat_vvel_min             =  -1.5011742170579E-03
(PID.TID 0000.0001) %MON dynstat_vvel_mean            =   1.3773853887108E-04
(PID.TID 0000.0001) %MON dynstat_vvel_sd              =   1.3706762796739E-04
(PID.TID 0000.0001) %MON dynstat_vvel_del2            =   6.4165661078163E-07
(PID.TID 0000.0001) %MON dynstat_wvel_max             =   4.1009431020133E-04
(PID.TID 0000.0001) %MON dynstat_wvel_min             =  -4.0533199256858E-04
(PID.TID 0000.0001) %MON dynstat_wvel_mean            =   4.4818680136467E-08
(PID.TID 0000.0001) %MON dynstat_wvel_sd              =   5.4152566370180E-05
(PID.TID 0000.0001) %MON dynstat_wvel_del2            =   2.9964236229993E-07
(PID.TID 0000.0001) %MON dynstat_theta_max            =   1.2000000000000E+00
(PID.TID 0000.0001) %MON dynstat_theta_min            =  -1.0000000000000E+00
(PID.TID 0000.0001) %MON dynstat_theta_mean           =   5.6913464456938E-01
(PID.TID 0000.0001) %MON dynstat_theta_sd             =   8.6859998118160E-01
(PID.TID 0000.0001) %MON dynstat_theta_del2           =   2.8856485208577E-06
(PID.TID 0000.0001) %MON dynstat_salt_max             =   3.4700000000000E+01
(PID.TID 0000.0001) %MON dynstat_salt_min             =   3.4000000000000E+01
(PID.TID 0000.0001) %MON dynstat_salt_mean            =   3.4499268006982E+01
(PID.TID 0000.0001) %MON dynstat_salt_sd              =   2.7637220293008E-01
(PID.TID 0000.0001) %MON dynstat_salt_del2            =   9.1739140782304E-07
(PID.TID 0000.0001) %MON advcfl_uvel_max              =   1.6524842576366E-04
(PID.TID 0000.0001) %MON advcfl_vvel_max              =   1.9996176202994E-04
(PID.TID 0000.0001) %MON advcfl_wvel_max              =   2.0504715510067E-03
(PID.TID 0000.0001) %MON advcfl_W_hf_max              =   2.0504715510067E-03
(PID.TID 0000.0001) %MON pe_b_mean                    =  -8.3251442942309E-01
(PID.TID 0000.0001) %MON ke_max                       =   2.1533749241123E-06
(PID.TID 0000.0001) %MON ke_mean                      =   2.0771580384239E-08
(PID.TID 0000.0001) %MON ke_vol                       =   4.2725533690913E+12
(PID.TID 0000.0001) // =======================================================
(PID.TID 0000.0001) // End MONITOR dynamic field statistics
(PID.TID 0000.0001) // =======================================================
(PID.TID 0000.0001) // =======================================================
(PID.TID 0000.0001) // Begin OBCS MONITOR field statistics
(PID.TID 0000.0001) // =======================================================
(PID.TID 0000.0001) %MON obc_N_vVel_max               =   1.3026017598850E-04
(PID.TID 0000.0001) %MON obc_N_vVel_min               =   1.3026017598850E-04
(PID.TID 0000.0001) %MON obc_N_vVel_mean              =   1.3026017598850E-04
(PID.TID 0000.0001) %MON obc_N_vVel_sd                =   3.3589795407569E-11
(PID.TID 0000.0001) %MON obc_N_vVel_Int               =   8.5971716152410E+03
(PID.TID 0000.0001) // =======================================================
(PID.TID 0000.0001) // End OBCS MONITOR field statistics
(PID.TID 0000.0001) // =======================================================
 cg2d: Sum(rhs),rhsMax =   4.52580028222122E+00  2.99861268253045E+02
(PID.TID 0000.0001)      cg2d_init_res =   1.06464519303414E-05
(PID.TID 0000.0001)      cg2d_iters(min,last) =      -1      86
(PID.TID 0000.0001)      cg2d_last_res =   9.21303041823733E-12
(PID.TID 0000.0001) // =======================================================
(PID.TID 0000.0001) // Begin MONITOR dynamic field statistics
(PID.TID 0000.0001) // =======================================================
(PID.TID 0000.0001) %MON time_tsnumber                =                    92
(PID.TID 0000.0001) %MON time_secondsf                =   9.2000000000000E+03
(PID.TID 0000.0001) %MON dynstat_eta_max              =   5.7946281066139E+00
(PID.TID 0000.0001) %MON dynstat_eta_min              =  -1.4202334314576E+01
(PID.TID 0000.0001) %MON dynstat_eta_mean             =  -2.5131707638645E+00
(PID.TID 0000.0001) %MON dynstat_eta_sd               =   4.9532323086095E+00
(PID.TID 0000.0001) %MON dynstat_eta_del2             =   2.0713997168095E-01
(PID.TID 0000.0001) %MON dynstat_uvel_max             =   1.6610187287576E-03
(PID.TID 0000.0001) %MON dynstat_uvel_min             =  -1.6745693150249E-03
(PID.TID 0000.0001) %MON dynstat_uvel_mean            =   9.3626654513236E-07
(PID.TID 0000.0001) %MON dynstat_uvel_sd              =   6.3656281149054E-05
(PID.TID 0000.0001) %MON dynstat_uvel_del2            =   3.3914416680080E-07
(PID.TID 0000.0001) %MON dynstat_vvel_max             =   2.0024329423745E-03
(PID.TID 0000.0001) %MON dynstat_vvel_min             =  -1.5337540144191E-03
(PID.TID 0000.0001) %MON dynstat_vvel_mean            =   1.1954566605232E-04
(PID.TID 0000.0001) %MON dynstat_vvel_sd              =   1.3673014482860E-04
(PID.TID 0000.0001) %MON dynstat_vvel_del2            =   6.4989893132078E-07
(PID.TID 0000.0001) %MON dynstat_wvel_max             =   3.6911027838855E-04
(PID.TID 0000.0001) %MON dynstat_wvel_min             =  -3.9363153732135E-04
(PID.TID 0000.0001) %MON dynstat_wvel_mean            =   8.4706001413677E-10
(PID.TID 0000.0001) %MON dynstat_wvel_sd              =   5.4575568506128E-05
(PID.TID 0000.0001) %MON dynstat_wvel_del2            =   3.0645662423715E-07
(PID.TID 0000.0001) %MON dynstat_theta_max            =   1.2000000000000E+00
(PID.TID 0000.0001) %MON dynstat_theta_min            =  -1.0000000000000E+00
(PID.TID 0000.0001) %MON dynstat_theta_mean           =   5.6913443180765E-01
(PID.TID 0000.0001) %MON dynstat_theta_sd             =   8.6859983072920E-01
(PID.TID 0000.0001) %MON dynstat_theta_del2           =   2.8638272074678E-06
(PID.TID 0000.0001) %MON dynstat_salt_max             =   3.4700000000000E+01
(PID.TID 0000.0001) %MON dynstat_salt_min             =   3.4000000000000E+01
(PID.TID 0000.0001) %MON dynstat_salt_mean            =   3.4499267918261E+01
(PID.TID 0000.0001) %MON dynstat_salt_sd              =   2.7637214937835E-01
(PID.TID 0000.0001) %MON dynstat_salt_del2            =   9.1041016223554E-07
(PID.TID 0000.0001) %MON advcfl_uvel_max              =   1.6745693150249E-04
(PID.TID 0000.0001) %MON advcfl_vvel_max              =   2.0024329423745E-04
(PID.TID 0000.0001) %MON advcfl_wvel_max              =   1.9681576866068E-03
(PID.TID 0000.0001) %MON advcfl_W_hf_max              =   1.9681576866068E-03
(PID.TID 0000.0001) %MON pe_b_mean                    =  -8.3254374068282E-01
(PID.TID 0000.0001) %MON ke_max                       =   2.2053383352323E-06
(PID.TID 0000.0001) %MON ke_mean                      =   1.8425524407338E-08
(PID.TID 0000.0001) %MON ke_vol                       =   4.2725525223749E+12
(PID.TID 0000.0001) // =======================================================
(PID.TID 0000.0001) // End MONITOR dynamic field statistics
(PID.TID 0000.0001) // =======================================================
(PID.TID 0000.0001) // =======================================================
(PID.TID 0000.0001) // Begin OBCS MONITOR field statistics
(PID.TID 0000.0001) // =======================================================
(PID.TID 0000.0001) %MON obc_N_vVel_max               =   1.1662316013540E-04
(PID.TID 0000.0001) %MON obc_N_vVel_min               =   1.1662316013539E-04
(PID.TID 0000.0001) %MON obc_N_vVel_mean              =   1.1662316013540E-04
(PID.TID 0000.0001) %MON obc_N_vVel_sd                =  -6.4189215534115E-22
(PID.TID 0000.0001) %MON obc_N_vVel_Int               =   7.6971285689361E+03
(PID.TID 0000.0001) // =======================================================
(PID.TID 0000.0001) // End OBCS MONITOR field statistics
(PID.TID 0000.0001) // =======================================================
 cg2d: Sum(rhs),rhsMax =   4.52599807124090E+00  2.99861313422067E+02
(PID.TID 0000.0001)      cg2d_init_res =   1.08267879761818E-05
(PID.TID 0000.0001)      cg2d_iters(min,last) =      -1      85
(PID.TID 0000.0001)      cg2d_last_res =   9.32744771523255E-12
(PID.TID 0000.0001) // =======================================================
(PID.TID 0000.0001) // Begin MONITOR dynamic field statistics
(PID.TID 0000.0001) // =======================================================
(PID.TID 0000.0001) %MON time_tsnumber                =                    93
(PID.TID 0000.0001) %MON time_secondsf                =   9.3000000000000E+03
(PID.TID 0000.0001) %MON dynstat_eta_max              =   5.7944617513692E+00
(PID.TID 0000.0001) %MON dynstat_eta_min              =  -1.4202479417440E+01
(PID.TID 0000.0001) %MON dynstat_eta_mean             =  -2.5132809744223E+00
(PID.TID 0000.0001) %MON dynstat_eta_sd               =   4.9532532279166E+00
(PID.TID 0000.0001) %MON dynstat_eta_del2             =   2.0713997339203E-01
(PID.TID 0000.0001) %MON dynstat_uvel_max             =   1.6828553663437E-03
(PID.TID 0000.0001) %MON dynstat_uvel_min             =  -1.6964121238559E-03
(PID.TID 0000.0001) %MON dynstat_uvel_mean            =   1.0160678204747E-06
(PID.TID 0000.0001) %MON dynstat_uvel_sd              =   6.4078553206897E-05
(PID.TID 0000.0001) %MON dynstat_uvel_del2            =   3.4172508237276E-07
(PID.TID 0000.0001) %MON dynstat_vvel_max             =   2.0034156555209E-03
(PID.TID 0000.0001) %MON dynstat_vvel_min             =  -1.5667646004980E-03
(PID.TID 0000.0001) %MON dynstat_vvel_mean            =   9.9744581271764E-05
(PID.TID 0000.0001) %MON dynstat_vvel_sd              =   1.3649429704583E-04
(PID.TID 0000.0001) %MON dynstat_vvel_del2            =   6.5596862273745E-07
(PID.TID 0000.0001) %MON dynstat_wvel_max             =   3.2051445919137E-04
(PID.TID 0000.0001) %MON dynstat_wvel_min             =  -3.9376742824036E-04
(PID.TID 0000.0001) %MON dynstat_wvel_mean            =  -4.0172127247698E-08
(PID.TID 0000.0001) %MON dynstat_wvel_sd              =   5.4954814194319E-05
(PID.TID 0000.0001) %MON dynstat_wvel_del2            =   3.1181030743592E-07
(PID.TID 0000.0001) %MON dynstat_theta_max            =   1.2000000000000E+00
(PID.TID 0000.0001) %MON dynstat_theta_min            =  -1.0000000000000E+00
(PID.TID 0000.0001) %MON dynstat_theta_mean           =   5.6913421166245E-01
(PID.TID 0000.0001) %MON dynstat_theta_sd             =   8.6859968371907E-01
(PID.TID 0000.0001) %MON dynstat_theta_del2           =   2.8429959925850E-06
(PID.TID 0000.0001) %MON dynstat_salt_max             =   3.4700000000000E+01
(PID.TID 0000.0001) %MON dynstat_salt_min             =   3.4000000000000E+01
(PID.TID 0000.0001) %MON dynstat_salt_mean            =   3.4499267827192E+01
(PID.TID 0000.0001) %MON dynstat_salt_sd              =   2.7637209692125E-01
(PID.TID 0000.0001) %MON dynstat_salt_del2            =   9.0374173798944E-07
(PID.TID 0000.0001) %MON advcfl_uvel_max              =   1.6964121238559E-04
(PID.TID 0000.0001) %MON advcfl_vvel_max              =   2.0034156555209E-04
(PID.TID 0000.0001) %MON advcfl_wvel_max              =   1.9688371412018E-03
(PID.TID 0000.0001) %MON advcfl_W_hf_max              =   1.9688371412018E-03
(PID.TID 0000.0001) %MON pe_b_mean                    =  -8.3256800570730E-01
(PID.TID 0000.0001) %MON ke_max                       =   2.2569986088584E-06
(PID.TID 0000.0001) %MON ke_mean                      =   1.6261923459690E-08
(PID.TID 0000.0001) %MON ke_vol                       =   4.2725517656626E+12
(PID.TID 0000.0001) // =======================================================
(PID.TID 0000.0001) // End MONITOR dynamic field statistics
(PID.TID 0000.0001) // =======================================================
(PID.TID 0000.0001) // =======================================================
(PID.TID 0000.0001) // Begin OBCS MONITOR field statistics
(PID.TID 0000.0001) // =======================================================
(PID.TID 0000.0001) %MON obc_N_vVel_max               =   1.0115928763464E-04
(PID.TID 0000.0001) %MON obc_N_vVel_min               =   1.0115928763464E-04
(PID.TID 0000.0001) %MON obc_N_vVel_mean              =   1.0115928763464E-04
(PID.TID 0000.0001) %MON obc_N_vVel_sd                =   2.7041221523757E-11
(PID.TID 0000.0001) %MON obc_N_vVel_Int               =   6.6765129838864E+03
(PID.TID 0000.0001) // =======================================================
(PID.TID 0000.0001) // End OBCS MONITOR field statistics
(PID.TID 0000.0001) // =======================================================
 cg2d: Sum(rhs),rhsMax =   4.52616219660305E+00  2.99861366603228E+02
(PID.TID 0000.0001)      cg2d_init_res =   1.09987839681404E-05
(PID.TID 0000.0001)      cg2d_iters(min,last) =      -1      85
(PID.TID 0000.0001)      cg2d_last_res =   8.04096220019305E-12
(PID.TID 0000.0001) // =======================================================
(PID.TID 0000.0001) // Begin MONITOR dynamic field statistics
(PID.TID 0000.0001) // =======================================================
(PID.TID 0000.0001) %MON time_tsnumber                =                    94
(PID.TID 0000.0001) %MON time_secondsf                =   9.4000000000000E+03
(PID.TID 0000.0001) %MON dynstat_eta_max              =   5.7943437297828E+00
(PID.TID 0000.0001) %MON dynstat_eta_min              =  -1.4202595058671E+01
(PID.TID 0000.0001) %MON dynstat_eta_mean             =  -2.5133725587801E+00
(PID.TID 0000.0001) %MON dynstat_eta_sd               =   4.9532672390941E+00
(PID.TID 0000.0001) %MON dynstat_eta_del2             =   2.0713997519788E-01
(PID.TID 0000.0001) %MON dynstat_uvel_max             =   1.7043508111314E-03
(PID.TID 0000.0001) %MON dynstat_uvel_min             =  -1.7180240038357E-03
(PID.TID 0000.0001) %MON dynstat_uvel_mean            =   1.0555350092242E-06
(PID.TID 0000.0001) %MON dynstat_uvel_sd              =   6.4486140819263E-05
(PID.TID 0000.0001) %MON dynstat_uvel_del2            =   3.4422628417554E-07
(PID.TID 0000.0001) %MON dynstat_vvel_max             =   2.0033759872771E-03
(PID.TID 0000.0001) %MON dynstat_vvel_min             =  -1.5998309775460E-03
(PID.TID 0000.0001) %MON dynstat_vvel_mean            =   7.8963159797695E-05
(PID.TID 0000.0001) %MON dynstat_vvel_sd              =   1.3634075415254E-04
(PID.TID 0000.0001) %MON dynstat_vvel_del2            =   6.5951182453183E-07
(PID.TID 0000.0001) %MON dynstat_wvel_max             =   3.4521475578576E-04
(PID.TID 0000.0001) %MON dynstat_wvel_min             =  -3.9815404542389E-04
(PID.TID 0000.0001) %MON dynstat_wvel_mean            =  -7.7343415900824E-08
(PID.TID 0000.0001) %MON dynstat_wvel_sd              =   5.5234098511773E-05
(PID.TID 0000.0001) %MON dynstat_wvel_del2            =   3.1519810689812E-07
(PID.TID 0000.0001) %MON dynstat_theta_max            =   1.2000000000000E+00
(PID.TID 0000.0001) %MON dynstat_theta_min            =  -1.0000000000000E+00
(PID.TID 0000.0001) %MON dynstat_theta_mean           =   5.6913398365882E-01
(PID.TID 0000.0001) %MON dynstat_theta_sd             =   8.6859954031301E-01
(PID.TID 0000.0001) %MON dynstat_theta_del2           =   2.8235999635582E-06
(PID.TID 0000.0001) %MON dynstat_salt_max             =   3.4700000000000E+01
(PID.TID 0000.0001) %MON dynstat_salt_min             =   3.4000000000000E+01
(PID.TID 0000.0001) %MON dynstat_salt_mean            =   3.4499267733622E+01
(PID.TID 0000.0001) %MON dynstat_salt_sd              =   2.7637204561008E-01
(PID.TID 0000.0001) %MON dynstat_salt_del2            =   8.9752807988943E-07
(PID.TID 0000.0001) %MON advcfl_uvel_max              =   1.7180240038357E-04
(PID.TID 0000.0001) %MON advcfl_vvel_max              =   2.0033759872771E-04
(PID.TID 0000.0001) %MON advcfl_wvel_max              =   1.9907702271195E-03
(PID.TID 0000.0001) %MON advcfl_W_hf_max              =   1.9907702271195E-03
(PID.TID 0000.0001) %MON pe_b_mean                    =  -8.3258701278362E-01
(PID.TID 0000.0001) %MON ke_max                       =   2.3084706082243E-06
(PID.TID 0000.0001) %MON ke_mean                      =   1.4421976541447E-08
(PID.TID 0000.0001) %MON ke_vol                       =   4.2725511110119E+12
(PID.TID 0000.0001) // =======================================================
(PID.TID 0000.0001) // End MONITOR dynamic field statistics
(PID.TID 0000.0001) // =======================================================
(PID.TID 0000.0001) // =======================================================
(PID.TID 0000.0001) // Begin OBCS MONITOR field statistics
(PID.TID 0000.0001) // =======================================================
(PID.TID 0000.0001) %MON obc_N_vVel_max               =   8.4395699402572E-05
(PID.TID 0000.0001) %MON obc_N_vVel_min               =   8.4395699402570E-05
(PID.TID 0000.0001) %MON obc_N_vVel_mean              =   8.4395699402572E-05
(PID.TID 0000.0001) %MON obc_N_vVel_sd                =  -5.8812541552520E-22
(PID.TID 0000.0001) %MON obc_N_vVel_Int               =   5.5701161605698E+03
(PID.TID 0000.0001) // =======================================================
(PID.TID 0000.0001) // End OBCS MONITOR field statistics
(PID.TID 0000.0001) // =======================================================
 cg2d: Sum(rhs),rhsMax =   4.52629110748881E+00  2.99861428175849E+02
(PID.TID 0000.0001)      cg2d_init_res =   1.11498734129683E-05
(PID.TID 0000.0001)      cg2d_iters(min,last) =      -1      84
(PID.TID 0000.0001)      cg2d_last_res =   9.20328982078632E-12
(PID.TID 0000.0001) // =======================================================
(PID.TID 0000.0001) // Begin MONITOR dynamic field statistics
(PID.TID 0000.0001) // =======================================================
(PID.TID 0000.0001) %MON time_tsnumber                =                    95
(PID.TID 0000.0001) %MON time_secondsf                =   9.5000000000000E+03
(PID.TID 0000.0001) %MON dynstat_eta_max              =   5.7942737385390E+00
(PID.TID 0000.0001) %MON dynstat_eta_min              =  -1.4202680744846E+01
(PID.TID 0000.0001) %MON dynstat_eta_mean             =  -2.5134446589467E+00
(PID.TID 0000.0001) %MON dynstat_eta_sd               =   4.9532745353512E+00
(PID.TID 0000.0001) %MON dynstat_eta_del2             =   2.0713997708808E-01
(PID.TID 0000.0001) %MON dynstat_uvel_max             =   1.7255180695592E-03
(PID.TID 0000.0001) %MON dynstat_uvel_min             =  -1.7394151975516E-03
(PID.TID 0000.0001) %MON dynstat_uvel_mean            =   1.0572795704354E-06
(PID.TID 0000.0001) %MON dynstat_uvel_sd              =   6.4879324146709E-05
(PID.TID 0000.0001) %MON dynstat_uvel_del2            =   3.4664995979359E-07
(PID.TID 0000.0001) %MON dynstat_vvel_max             =   2.0030953062040E-03
(PID.TID 0000.0001) %MON dynstat_vvel_min             =  -1.6351619582160E-03
(PID.TID 0000.0001) %MON dynstat_vvel_mean            =   5.7815042471835E-05
(PID.TID 0000.0001) %MON dynstat_vvel_sd              =   1.3624250377036E-04
(PID.TID 0000.0001) %MON dynstat_vvel_del2            =   6.6045531341933E-07
(PID.TID 0000.0001) %MON dynstat_wvel_max             =   3.7915583179241E-04
(PID.TID 0000.0001) %MON dynstat_wvel_min             =  -3.9241637924831E-04
(PID.TID 0000.0001) %MON dynstat_wvel_mean            =  -1.0992777777953E-07
(PID.TID 0000.0001) %MON dynstat_wvel_sd              =   5.5373514248607E-05
(PID.TID 0000.0001) %MON dynstat_wvel_del2            =   3.1636013632610E-07
(PID.TID 0000.0001) %MON dynstat_theta_max            =   1.2000000000000E+00
(PID.TID 0000.0001) %MON dynstat_theta_min            =  -1.0000000000000E+00
(PID.TID 0000.0001) %MON dynstat_theta_mean           =   5.6913374756133E-01
(PID.TID 0000.0001) %MON dynstat_theta_sd             =   8.6859940055462E-01
(PID.TID 0000.0001) %MON dynstat_theta_del2           =   2.8058919216513E-06
(PID.TID 0000.0001) %MON dynstat_salt_max             =   3.4700000000000E+01
(PID.TID 0000.0001) %MON dynstat_salt_min             =   3.4000000000000E+01
(PID.TID 0000.0001) %MON dynstat_salt_mean            =   3.4499267637478E+01
(PID.TID 0000.0001) %MON dynstat_salt_sd              =   2.7637199545808E-01
(PID.TID 0000.0001) %MON dynstat_salt_del2            =   8.9184998581088E-07
(PID.TID 0000.0001) %MON advcfl_uvel_max              =   1.7394151975516E-04
(PID.TID 0000.0001) %MON advcfl_vvel_max              =   2.0030953062040E-04
(PID.TID 0000.0001) %MON advcfl_wvel_max              =   1.9620818962416E-03
(PID.TID 0000.0001) %MON advcfl_W_hf_max              =   1.9620818962416E-03
(PID.TID 0000.0001) %MON pe_b_mean                    =  -8.3260070310132E-01
(PID.TID 0000.0001) %MON ke_max                       =   2.3598622452230E-06
(PID.TID 0000.0001) %MON ke_mean                      =   1.2997586793642E-08
(PID.TID 0000.0001) %MON ke_vol                       =   4.2725505670008E+12
(PID.TID 0000.0001) // =======================================================
(PID.TID 0000.0001) // End MONITOR dynamic field statistics
(PID.TID 0000.0001) // =======================================================
(PID.TID 0000.0001) // =======================================================
(PID.TID 0000.0001) // Begin OBCS MONITOR field statistics
(PID.TID 0000.0001) // =======================================================
(PID.TID 0000.0001) %MON obc_N_vVel_max               =   6.6859919047260E-05
(PID.TID 0000.0001) %MON obc_N_vVel_min               =   6.6859919047259E-05
(PID.TID 0000.0001) %MON obc_N_vVel_mean              =   6.6859919047260E-05
(PID.TID 0000.0001) %MON obc_N_vVel_sd                =  -9.4298589831045E-23
(PID.TID 0000.0001) %MON obc_N_vVel_Int               =   4.4127546571192E+03
(PID.TID 0000.0001) // =======================================================
(PID.TID 0000.0001) // End OBCS MONITOR field statistics
(PID.TID 0000.0001) // =======================================================
 cg2d: Sum(rhs),rhsMax =   4.52638428558007E+00  2.99861498246440E+02
(PID.TID 0000.0001)      cg2d_init_res =   1.12697708015391E-05
(PID.TID 0000.0001)      cg2d_iters(min,last) =      -1      82
(PID.TID 0000.0001)      cg2d_last_res =   9.58810269675555E-12
(PID.TID 0000.0001) // =======================================================
(PID.TID 0000.0001) // Begin MONITOR dynamic field statistics
(PID.TID 0000.0001) // =======================================================
(PID.TID 0000.0001) %MON time_tsnumber                =                    96
(PID.TID 0000.0001) %MON time_secondsf                =   9.6000000000000E+03
(PID.TID 0000.0001) %MON dynstat_eta_max              =   5.7942502252091E+00
(PID.TID 0000.0001) %MON dynstat_eta_min              =  -1.4202736805620E+01
(PID.TID 0000.0001) %MON dynstat_eta_mean             =  -2.5134969879874E+00
(PID.TID 0000.0001) %MON dynstat_eta_sd               =   4.9532754756359E+00
(PID.TID 0000.0001) %MON dynstat_eta_del2             =   2.0713997905142E-01
(PID.TID 0000.0001) %MON dynstat_uvel_max             =   1.7463724760312E-03
(PID.TID 0000.0001) %MON dynstat_uvel_min             =  -1.7605947614960E-03
(PID.TID 0000.0001) %MON dynstat_uvel_mean            =   1.0250535421038E-06
(PID.TID 0000.0001) %MON dynstat_uvel_sd              =   6.5258197898737E-05
(PID.TID 0000.0001) %MON dynstat_uvel_del2            =   3.4899828478181E-07
(PID.TID 0000.0001) %MON dynstat_vvel_max             =   2.0033070105807E-03
(PID.TID 0000.0001) %MON dynstat_vvel_min             =  -1.6840213804574E-03
(PID.TID 0000.0001) %MON dynstat_vvel_mean            =   3.6884305457857E-05
(PID.TID 0000.0001) %MON dynstat_vvel_sd              =   1.3617058996790E-04
(PID.TID 0000.0001) %MON dynstat_vvel_del2            =   6.5899464487718E-07
(PID.TID 0000.0001) %MON dynstat_wvel_max             =   4.0574727961378E-04
(PID.TID 0000.0001) %MON dynstat_wvel_min             =  -3.7694476282504E-04
(PID.TID 0000.0001) %MON dynstat_wvel_mean            =  -1.3735226498369E-07
(PID.TID 0000.0001) %MON dynstat_wvel_sd              =   5.5352486453451E-05
(PID.TID 0000.0001) %MON dynstat_wvel_del2            =   3.1527682990944E-07
(PID.TID 0000.0001) %MON dynstat_theta_max            =   1.2000000000000E+00
(PID.TID 0000.0001) %MON dynstat_theta_min            =  -1.0000000000000E+00
(PID.TID 0000.0001) %MON dynstat_theta_mean           =   5.6913350336486E-01
(PID.TID 0000.0001) %MON dynstat_theta_sd             =   8.6859926434796E-01
(PID.TID 0000.0001) %MON dynstat_theta_del2           =   2.7899178822487E-06
(PID.TID 0000.0001) %MON dynstat_salt_max             =   3.4700000000000E+01
(PID.TID 0000.0001) %MON dynstat_salt_min             =   3.4000000000000E+01
(PID.TID 0000.0001) %MON dynstat_salt_mean            =   3.4499267538757E+01
(PID.TID 0000.0001) %MON dynstat_salt_sd              =   2.7637194643458E-01
(PID.TID 0000.0001) %MON dynstat_salt_del2            =   8.8672248511523E-07
(PID.TID 0000.0001) %MON advcfl_uvel_max              =   1.7605947614960E-04
(PID.TID 0000.0001) %MON advcfl_vvel_max              =   2.0033070105807E-04
(PID.TID 0000.0001) %MON advcfl_wvel_max              =   2.0287363980689E-03
(PID.TID 0000.0001) %MON advcfl_W_hf_max              =   2.0287363980689E-03
(PID.TID 0000.0001) %MON pe_b_mean                    =  -8.3260916253580E-01
(PID.TID 0000.0001) %MON ke_max                       =   2.4112709490111E-06
(PID.TID 0000.0001) %MON ke_mean                      =   1.2028913886464E-08
(PID.TID 0000.0001) %MON ke_vol                       =   4.2725501387259E+12
(PID.TID 0000.0001) // =======================================================
(PID.TID 0000.0001) // End MONITOR dynamic field statistics
(PID.TID 0000.0001) // =======================================================
(PID.TID 0000.0001) // =======================================================
(PID.TID 0000.0001) // Begin OBCS MONITOR field statistics
(PID.TID 0000.0001) // =======================================================
(PID.TID 0000.0001) %MON obc_N_vVel_max               =   4.9065897311734E-05
(PID.TID 0000.0001) %MON obc_N_vVel_min               =   4.9065897311733E-05
(PID.TID 0000.0001) %MON obc_N_vVel_mean              =   4.9065897311733E-05
(PID.TID 0000.0001) %MON obc_N_vVel_sd                =   4.8553730503187E-12
(PID.TID 0000.0001) %MON obc_N_vVel_Int               =   3.2383492225744E+03
(PID.TID 0000.0001) // =======================================================
(PID.TID 0000.0001) // End OBCS MONITOR field statistics
(PID.TID 0000.0001) // =======================================================
 cg2d: Sum(rhs),rhsMax =   4.52644219246124E+00  2.99861576661035E+02
(PID.TID 0000.0001)      cg2d_init_res =   1.13517438824187E-05
(PID.TID 0000.0001)      cg2d_iters(min,last) =      -1      82
(PID.TID 0000.0001)      cg2d_last_res =   8.32255000063181E-12
(PID.TID 0000.0001) // =======================================================
(PID.TID 0000.0001) // Begin MONITOR dynamic field statistics
(PID.TID 0000.0001) // =======================================================
(PID.TID 0000.0001) %MON time_tsnumber                =                    97
(PID.TID 0000.0001) %MON time_secondsf                =   9.7000000000000E+03
(PID.TID 0000.0001) %MON dynstat_eta_max              =   5.7942705189619E+00
(PID.TID 0000.0001) %MON dynstat_eta_min              =  -1.4202764314757E+01
(PID.TID 0000.0001) %MON dynstat_eta_mean             =  -2.5135298009194E+00
(PID.TID 0000.0001) %MON dynstat_eta_sd               =   4.9532705645203E+00
(PID.TID 0000.0001) %MON dynstat_eta_del2             =   2.0713998107363E-01
(PID.TID 0000.0001) %MON dynstat_uvel_max             =   1.7669303253243E-03
(PID.TID 0000.0001) %MON dynstat_uvel_min             =  -1.7815704895057E-03
(PID.TID 0000.0001) %MON dynstat_uvel_mean            =   9.6340430245129E-07
(PID.TID 0000.0001) %MON dynstat_uvel_sd              =   6.5622706464157E-05
(PID.TID 0000.0001) %MON dynstat_uvel_del2            =   3.5127338908964E-07
(PID.TID 0000.0001) %MON dynstat_vvel_max             =   2.0046801364551E-03
(PID.TID 0000.0001) %MON dynstat_vvel_min             =  -1.7313426591237E-03
(PID.TID 0000.0001) %MON dynstat_vvel_mean            =   1.6711898475997E-05
(PID.TID 0000.0001) %MON dynstat_vvel_sd              =   1.3609920659766E-04
(PID.TID 0000.0001) %MON dynstat_vvel_del2            =   6.5556188939780E-07
(PID.TID 0000.0001) %MON dynstat_wvel_max             =   4.2438365179436E-04
(PID.TID 0000.0001) %MON dynstat_wvel_min             =  -3.5237721929143E-04
(PID.TID 0000.0001) %MON dynstat_wvel_mean            =  -1.5921551246753E-07
(PID.TID 0000.0001) %MON dynstat_wvel_sd              =   5.5170514019466E-05
(PID.TID 0000.0001) %MON dynstat_wvel_del2            =   3.1215195864496E-07
(PID.TID 0000.0001) %MON dynstat_theta_max            =   1.2000000000000E+00
(PID.TID 0000.0001) %MON dynstat_theta_min            =  -1.0000000000000E+00
(PID.TID 0000.0001) %MON dynstat_theta_mean           =   5.6913325127961E-01
(PID.TID 0000.0001) %MON dynstat_theta_sd             =   8.6859913148179E-01
(PID.TID 0000.0001) %MON dynstat_theta_del2           =   2.7755223991010E-06
(PID.TID 0000.0001) %MON dynstat_salt_max             =   3.4700000000000E+01
(PID.TID 0000.0001) %MON dynstat_salt_min             =   3.4000000000000E+01
(PID.TID 0000.0001) %MON dynstat_salt_mean            =   3.4499267437525E+01
(PID.TID 0000.0001) %MON dynstat_salt_sd              =   2.7637189847225E-01
(PID.TID 0000.0001) %MON dynstat_salt_del2            =   8.8209649124801E-07
(PID.TID 0000.0001) %MON advcfl_uvel_max              =   1.7815704895057E-04
(PID.TID 0000.0001) %MON advcfl_vvel_max              =   2.0046801364551E-04
(PID.TID 0000.0001) %MON advcfl_wvel_max              =   2.1219182589718E-03
(PID.TID 0000.0001) %MON advcfl_W_hf_max              =   2.1219182589718E-03
(PID.TID 0000.0001) %MON pe_b_mean                    =  -8.3261261012965E-01
(PID.TID 0000.0001) %MON ke_max                       =   2.4627813943573E-06
(PID.TID 0000.0001) %MON ke_mean                      =   1.1507448281164E-08
(PID.TID 0000.0001) %MON ke_vol                       =   4.2725498278914E+12
(PID.TID 0000.0001) // =======================================================
(PID.TID 0000.0001) // End MONITOR dynamic field statistics
(PID.TID 0000.0001) // =======================================================
(PID.TID 0000.0001) // =======================================================
(PID.TID 0000.0001) // Begin OBCS MONITOR field statistics
(PID.TID 0000.0001) // =======================================================
(PID.TID 0000.0001) %MON obc_N_vVel_max               =   3.1501391211633E-05
(PID.TID 0000.0001) %MON obc_N_vVel_min               =   3.1501391211632E-05
(PID.TID 0000.0001) %MON obc_N_vVel_mean              =   3.1501391211633E-05
(PID.TID 0000.0001) %MON obc_N_vVel_sd                =  -8.6647169164930E-23
(PID.TID 0000.0001) %MON obc_N_vVel_Int               =   2.0790918199678E+03
(PID.TID 0000.0001) // =======================================================
(PID.TID 0000.0001) // End OBCS MONITOR field statistics
(PID.TID 0000.0001) // =======================================================
 cg2d: Sum(rhs),rhsMax =   4.52646619465716E+00  2.99861663023803E+02
(PID.TID 0000.0001)      cg2d_init_res =   1.13927175757936E-05
(PID.TID 0000.0001)      cg2d_iters(min,last) =      -1      83
(PID.TID 0000.0001)      cg2d_last_res =   8.07491671532279E-12
(PID.TID 0000.0001) // =======================================================
(PID.TID 0000.0001) // Begin MONITOR dynamic field statistics
(PID.TID 0000.0001) // =======================================================
(PID.TID 0000.0001) %MON time_tsnumber                =                    98
(PID.TID 0000.0001) %MON time_secondsf                =   9.8000000000000E+03
(PID.TID 0000.0001) %MON dynstat_eta_max              =   5.7943309644384E+00
(PID.TID 0000.0001) %MON dynstat_eta_min              =  -1.4202765030874E+01
(PID.TID 0000.0001) %MON dynstat_eta_mean             =  -2.5135438532424E+00
(PID.TID 0000.0001) %MON dynstat_eta_sd               =   4.9532604296040E+00
(PID.TID 0000.0001) %MON dynstat_eta_del2             =   2.0713998314097E-01
(PID.TID 0000.0001) %MON dynstat_uvel_max             =   1.7872077869612E-03
(PID.TID 0000.0001) %MON dynstat_uvel_min             =  -1.8023488930865E-03
(PID.TID 0000.0001) %MON dynstat_uvel_mean            =   8.7733485994661E-07
(PID.TID 0000.0001) %MON dynstat_uvel_sd              =   6.5972714856517E-05
(PID.TID 0000.0001) %MON dynstat_uvel_del2            =   3.5347732931443E-07
(PID.TID 0000.0001) %MON dynstat_vvel_max             =   2.0078051113295E-03
(PID.TID 0000.0001) %MON dynstat_vvel_min             =  -1.7765432655841E-03
(PID.TID 0000.0001) %MON dynstat_vvel_mean            =  -2.2159066806054E-06
(PID.TID 0000.0001) %MON dynstat_vvel_sd              =   1.3600949654152E-04
(PID.TID 0000.0001) %MON dynstat_vvel_del2            =   6.5077471019069E-07
(PID.TID 0000.0001) %MON dynstat_wvel_max             =   4.3462642193469E-04
(PID.TID 0000.0001) %MON dynstat_wvel_min             =  -3.4120111759203E-04
(PID.TID 0000.0001) %MON dynstat_wvel_mean            =  -1.7528859882121E-07
(PID.TID 0000.0001) %MON dynstat_wvel_sd              =   5.4845937552250E-05
(PID.TID 0000.0001) %MON dynstat_wvel_del2            =   3.0738585118175E-07
(PID.TID 0000.0001) %MON dynstat_theta_max            =   1.2000000000000E+00
(PID.TID 0000.0001) %MON dynstat_theta_min            =  -1.0000000000000E+00
(PID.TID 0000.0001) %MON dynstat_theta_mean           =   5.6913299171142E-01
(PID.TID 0000.0001) %MON dynstat_theta_sd             =   8.6859900137227E-01
(PID.TID 0000.0001) %MON dynstat_theta_del2           =   2.7623882562093E-06
(PID.TID 0000.0001) %MON dynstat_salt_max             =   3.4700000000000E+01
(PID.TID 0000.0001) %MON dynstat_salt_min             =   3.4000000000000E+01
(PID.TID 0000.0001) %MON dynstat_salt_mean            =   3.4499267333913E+01
(PID.TID 0000.0001) %MON dynstat_salt_sd              =   2.7637185138523E-01
(PID.TID 0000.0001) %MON dynstat_salt_del2            =   8.7787203346547E-07
(PID.TID 0000.0001) %MON advcfl_uvel_max              =   1.8023488930865E-04
(PID.TID 0000.0001) %MON advcfl_vvel_max              =   2.0078051113295E-04
(PID.TID 0000.0001) %MON advcfl_wvel_max              =   2.1731321096734E-03
(PID.TID 0000.0001) %MON advcfl_W_hf_max              =   2.1731321096734E-03
(PID.TID 0000.0001) %MON pe_b_mean                    =  -8.3261138377883E-01
(PID.TID 0000.0001) %MON ke_max                       =   2.5144641389858E-06
(PID.TID 0000.0001) %MON ke_mean                      =   1.1383570356707E-08
(PID.TID 0000.0001) %MON ke_vol                       =   4.2725496329825E+12
(PID.TID 0000.0001) // =======================================================
(PID.TID 0000.0001) // End MONITOR dynamic field statistics
(PID.TID 0000.0001) // =======================================================
(PID.TID 0000.0001) // =======================================================
(PID.TID 0000.0001) // Begin OBCS MONITOR field statistics
(PID.TID 0000.0001) // =======================================================
(PID.TID 0000.0001) %MON obc_N_vVel_max               =   1.4616834803485E-05
(PID.TID 0000.0001) %MON obc_N_vVel_min               =   1.4616834803485E-05
(PID.TID 0000.0001) %MON obc_N_vVel_mean              =   1.4616834803485E-05
(PID.TID 0000.0001) %MON obc_N_vVel_sd                =  -1.0727498569047E-23
(PID.TID 0000.0001) %MON obc_N_vVel_Int               =   9.6471109703000E+02
(PID.TID 0000.0001) // =======================================================
(PID.TID 0000.0001) // End OBCS MONITOR field statistics
(PID.TID 0000.0001) // =======================================================
 cg2d: Sum(rhs),rhsMax =   4.52645846964115E+00  2.99861756720458E+02
(PID.TID 0000.0001)      cg2d_init_res =   1.13932782278956E-05
(PID.TID 0000.0001)      cg2d_iters(min,last) =      -1      84
(PID.TID 0000.0001)      cg2d_last_res =   7.66479665908641E-12
(PID.TID 0000.0001) // =======================================================
(PID.TID 0000.0001) // Begin MONITOR dynamic field statistics
(PID.TID 0000.0001) // =======================================================
(PID.TID 0000.0001) %MON time_tsnumber                =                    99
(PID.TID 0000.0001) %MON time_secondsf                =   9.9000000000000E+03
(PID.TID 0000.0001) %MON dynstat_eta_max              =   5.7944270856226E+00
(PID.TID 0000.0001) %MON dynstat_eta_min              =  -1.4202741301823E+01
(PID.TID 0000.0001) %MON dynstat_eta_mean             =  -2.5135403489422E+00
(PID.TID 0000.0001) %MON dynstat_eta_sd               =   4.9532457970322E+00
(PID.TID 0000.0001) %MON dynstat_eta_del2             =   2.0713998523985E-01
(PID.TID 0000.0001) %MON dynstat_uvel_max             =   1.8072257890722E-03
(PID.TID 0000.0001) %MON dynstat_uvel_min             =  -1.8229351764028E-03
(PID.TID 0000.0001) %MON dynstat_uvel_mean            =   7.7199729577531E-07
(PID.TID 0000.0001) %MON dynstat_uvel_sd              =   6.6308102656968E-05
(PID.TID 0000.0001) %MON dynstat_uvel_del2            =   3.5561207954050E-07
(PID.TID 0000.0001) %MON dynstat_vvel_max             =   2.0131856962156E-03
(PID.TID 0000.0001) %MON dynstat_vvel_min             =  -1.8191291670187E-03
(PID.TID 0000.0001) %MON dynstat_vvel_mean            =  -1.9476899349242E-05
(PID.TID 0000.0001) %MON dynstat_vvel_sd              =   1.3589161737723E-04
(PID.TID 0000.0001) %MON dynstat_vvel_del2            =   6.4536764484657E-07
(PID.TID 0000.0001) %MON dynstat_wvel_max             =   4.3701934623940E-04
(PID.TID 0000.0001) %MON dynstat_wvel_min             =  -3.5692148652257E-04
(PID.TID 0000.0001) %MON dynstat_wvel_mean            =  -1.8551071411744E-07
(PID.TID 0000.0001) %MON dynstat_wvel_sd              =   5.4412945452132E-05
(PID.TID 0000.0001) %MON dynstat_wvel_del2            =   3.0153717191735E-07
(PID.TID 0000.0001) %MON dynstat_theta_max            =   1.2000000000000E+00
(PID.TID 0000.0001) %MON dynstat_theta_min            =  -1.0000000000000E+00
(PID.TID 0000.0001) %MON dynstat_theta_mean           =   5.6913272523834E-01
(PID.TID 0000.0001) %MON dynstat_theta_sd             =   8.6859887363850E-01
(PID.TID 0000.0001) %MON dynstat_theta_del2           =   2.7500564255452E-06
(PID.TID 0000.0001) %MON dynstat_salt_max             =   3.4700000000000E+01
(PID.TID 0000.0001) %MON dynstat_salt_min             =   3.4000000000000E+01
(PID.TID 0000.0001) %MON dynstat_salt_mean            =   3.4499267228104E+01
(PID.TID 0000.0001) %MON dynstat_salt_sd              =   2.7637180505228E-01
(PID.TID 0000.0001) %MON dynstat_salt_del2            =   8.7390210639338E-07
(PID.TID 0000.0001) %MON advcfl_uvel_max              =   1.8229351764028E-04
(PID.TID 0000.0001) %MON advcfl_vvel_max              =   2.0131856962156E-04
(PID.TID 0000.0001) %MON advcfl_wvel_max              =   2.1850967311970E-03
(PID.TID 0000.0001) %MON advcfl_W_hf_max              =   2.1850967311970E-03
(PID.TID 0000.0001) %MON pe_b_mean                    =  -8.3260592368620E-01
(PID.TID 0000.0001) %MON ke_max                       =   2.5663753404397E-06
(PID.TID 0000.0001) %MON ke_mean                      =   1.1577226989817E-08
(PID.TID 0000.0001) %MON ke_vol                       =   4.2725495495117E+12
(PID.TID 0000.0001) // =======================================================
(PID.TID 0000.0001) // End MONITOR dynamic field statistics
(PID.TID 0000.0001) // =======================================================
(PID.TID 0000.0001) // =======================================================
(PID.TID 0000.0001) // Begin OBCS MONITOR field statistics
(PID.TID 0000.0001) // =======================================================
(PID.TID 0000.0001) %MON obc_N_vVel_max               =  -1.1841345559865E-06
(PID.TID 0000.0001) %MON obc_N_vVel_min               =  -1.1841345559865E-06
(PID.TID 0000.0001) %MON obc_N_vVel_mean              =  -1.1841345559865E-06
(PID.TID 0000.0001) %MON obc_N_vVel_sd                =   3.0677019175475E-13
(PID.TID 0000.0001) %MON obc_N_vVel_Int               =  -7.8152880695106E+01
(PID.TID 0000.0001) // =======================================================
(PID.TID 0000.0001) // End OBCS MONITOR field statistics
(PID.TID 0000.0001) // =======================================================
 cg2d: Sum(rhs),rhsMax =   4.52642189646272E+00  2.99861856950847E+02
(PID.TID 0000.0001)      cg2d_init_res =   1.13566788670532E-05
(PID.TID 0000.0001)      cg2d_iters(min,last) =      -1      84
(PID.TID 0000.0001)      cg2d_last_res =   8.46321679934456E-12
(PID.TID 0000.0001) // =======================================================
(PID.TID 0000.0001) // Begin MONITOR dynamic field statistics
(PID.TID 0000.0001) // =======================================================
(PID.TID 0000.0001) %MON time_tsnumber                =                   100
(PID.TID 0000.0001) %MON time_secondsf                =   1.0000000000000E+04
(PID.TID 0000.0001) %MON dynstat_eta_max              =   5.7945537525800E+00
(PID.TID 0000.0001) %MON dynstat_eta_min              =  -1.4202695967619E+01
(PID.TID 0000.0001) %MON dynstat_eta_mean             =  -2.5135208800302E+00
(PID.TID 0000.0001) %MON dynstat_eta_sd               =   4.9532274659368E+00
(PID.TID 0000.0001) %MON dynstat_eta_del2             =   2.0713998735557E-01
(PID.TID 0000.0001) %MON dynstat_uvel_max             =   1.8269953271570E-03
(PID.TID 0000.0001) %MON dynstat_uvel_min             =  -1.8433332516707E-03
(PID.TID 0000.0001) %MON dynstat_uvel_mean            =   6.5243155779219E-07
(PID.TID 0000.0001) %MON dynstat_uvel_sd              =   6.6628862935289E-05
(PID.TID 0000.0001) %MON dynstat_uvel_del2            =   3.5767949036429E-07
(PID.TID 0000.0001) %MON dynstat_vvel_max             =   2.0212252986624E-03
(PID.TID 0000.0001) %MON dynstat_vvel_min             =  -1.8587024340571E-03
(PID.TID 0000.0001) %MON dynstat_vvel_mean            =  -3.4720018382073E-05
(PID.TID 0000.0001) %MON dynstat_vvel_sd              =   1.3574508310887E-04
(PID.TID 0000.0001) %MON dynstat_vvel_del2            =   6.4010909839225E-07
(PID.TID 0000.0001) %MON dynstat_wvel_max             =   4.4342478989205E-04
(PID.TID 0000.0001) %MON dynstat_wvel_min             =  -3.6805138161525E-04
(PID.TID 0000.0001) %MON dynstat_wvel_mean            =  -1.8998078691650E-07
(PID.TID 0000.0001) %MON dynstat_wvel_sd              =   5.3917112956261E-05
(PID.TID 0000.0001) %MON dynstat_wvel_del2            =   2.9527077473585E-07
(PID.TID 0000.0001) %MON dynstat_theta_max            =   1.2000000000000E+00
(PID.TID 0000.0001) %MON dynstat_theta_min            =  -1.0000000000000E+00
(PID.TID 0000.0001) %MON dynstat_theta_mean           =   5.6913245258405E-01
(PID.TID 0000.0001) %MON dynstat_theta_sd             =   8.6859874828439E-01
(PID.TID 0000.0001) %MON dynstat_theta_del2           =   2.7380167256258E-06
(PID.TID 0000.0001) %MON dynstat_salt_max             =   3.4700000000000E+01
(PID.TID 0000.0001) %MON dynstat_salt_min             =   3.4000000000000E+01
(PID.TID 0000.0001) %MON dynstat_salt_mean            =   3.4499267120327E+01
(PID.TID 0000.0001) %MON dynstat_salt_sd              =   2.7637175947496E-01
(PID.TID 0000.0001) %MON dynstat_salt_del2            =   8.7002526304215E-07
(PID.TID 0000.0001) %MON advcfl_uvel_max              =   1.8433332516707E-04
(PID.TID 0000.0001) %MON advcfl_vvel_max              =   2.0212252986624E-04
(PID.TID 0000.0001) %MON advcfl_wvel_max              =   2.2171239494603E-03
(PID.TID 0000.0001) %MON advcfl_W_hf_max              =   2.2171239494603E-03
(PID.TID 0000.0001) %MON pe_b_mean                    =  -8.3259675416225E-01
(PID.TID 0000.0001) %MON ke_max                       =   2.6185569013317E-06
(PID.TID 0000.0001) %MON ke_mean                      =   1.1990241318541E-08
(PID.TID 0000.0001) %MON ke_vol                       =   4.2725495703273E+12
(PID.TID 0000.0001) // =======================================================
(PID.TID 0000.0001) // End MONITOR dynamic field statistics
(PID.TID 0000.0001) // =======================================================
(PID.TID 0000.0001) // =======================================================
(PID.TID 0000.0001) // Begin OBCS MONITOR field statistics
(PID.TID 0000.0001) // =======================================================
(PID.TID 0000.0001) %MON obc_N_vVel_max               =  -1.5552293592669E-05
(PID.TID 0000.0001) %MON obc_N_vVel_min               =  -1.5552293592669E-05
(PID.TID 0000.0001) %MON obc_N_vVel_mean              =  -1.5552293592669E-05
(PID.TID 0000.0001) %MON obc_N_vVel_sd                =   3.6094451994330E-12
(PID.TID 0000.0001) %MON obc_N_vVel_Int               =  -1.0264513771161E+03
(PID.TID 0000.0001) // =======================================================
(PID.TID 0000.0001) // End OBCS MONITOR field statistics
(PID.TID 0000.0001) // =======================================================
 cg2d: Sum(rhs),rhsMax =   4.52635993497592E+00  2.99861962758248E+02
(PID.TID 0000.0001)      cg2d_init_res =   1.12893859731383E-05
(PID.TID 0000.0001)      cg2d_iters(min,last) =      -1      84
(PID.TID 0000.0001)      cg2d_last_res =   9.31342485022710E-12
(PID.TID 0000.0001) // =======================================================
(PID.TID 0000.0001) // Begin MONITOR dynamic field statistics
(PID.TID 0000.0001) // =======================================================
(PID.TID 0000.0001) %MON time_tsnumber                =                   101
(PID.TID 0000.0001) %MON time_secondsf                =   1.0100000000000E+04
(PID.TID 0000.0001) %MON dynstat_eta_max              =   5.7947053610160E+00
(PID.TID 0000.0001) %MON dynstat_eta_min              =  -1.4202632254915E+01
(PID.TID 0000.0001) %MON dynstat_eta_mean             =  -2.5134873597263E+00
(PID.TID 0000.0001) %MON dynstat_eta_sd               =   4.9532062825579E+00
(PID.TID 0000.0001) %MON dynstat_eta_del2             =   2.0713998947390E-01
(PID.TID 0000.0001) %MON dynstat_uvel_max             =   1.8465266869043E-03
(PID.TID 0000.0001) %MON dynstat_uvel_min             =  -1.8635457925313E-03
(PID.TID 0000.0001) %MON dynstat_uvel_mean            =   5.2336422468836E-07
(PID.TID 0000.0001) %MON dynstat_uvel_sd              =   6.6935195005264E-05
(PID.TID 0000.0001) %MON dynstat_uvel_del2            =   3.5968130402880E-07
(PID.TID 0000.0001) %MON dynstat_vvel_max             =   2.0322263009476E-03
(PID.TID 0000.0001) %MON dynstat_vvel_min             =  -1.8949659711760E-03
(PID.TID 0000.0001) %MON dynstat_vvel_mean            =  -4.7670124709836E-05
(PID.TID 0000.0001) %MON dynstat_vvel_sd              =   1.3557751446716E-04
(PID.TID 0000.0001) %MON dynstat_vvel_del2            =   6.3570973013769E-07
(PID.TID 0000.0001) %MON dynstat_wvel_max             =   4.4100113260697E-04
(PID.TID 0000.0001) %MON dynstat_wvel_min             =  -3.7421877736154E-04
(PID.TID 0000.0001) %MON dynstat_wvel_mean            =  -1.8894553715868E-07
(PID.TID 0000.0001) %MON dynstat_wvel_sd              =   5.3409708406676E-05
(PID.TID 0000.0001) %MON dynstat_wvel_del2            =   2.8928846131647E-07
(PID.TID 0000.0001) %MON dynstat_theta_max            =   1.2000000000000E+00
(PID.TID 0000.0001) %MON dynstat_theta_min            =  -1.0000000000000E+00
(PID.TID 0000.0001) %MON dynstat_theta_mean           =   5.6913217458929E-01
(PID.TID 0000.0001) %MON dynstat_theta_sd             =   8.6859862485286E-01
(PID.TID 0000.0001) %MON dynstat_theta_del2           =   2.7257795694071E-06
(PID.TID 0000.0001) %MON dynstat_salt_max             =   3.4700000000000E+01
(PID.TID 0000.0001) %MON dynstat_salt_min             =   3.4000000000000E+01
(PID.TID 0000.0001) %MON dynstat_salt_mean            =   3.4499267010852E+01
(PID.TID 0000.0001) %MON dynstat_salt_sd              =   2.7637171450814E-01
(PID.TID 0000.0001) %MON dynstat_salt_del2            =   8.6608595212729E-07
(PID.TID 0000.0001) %MON advcfl_uvel_max              =   1.8635457925313E-04
(PID.TID 0000.0001) %MON advcfl_vvel_max              =   2.0322263009476E-04
(PID.TID 0000.0001) %MON advcfl_wvel_max              =   2.2050056630349E-03
(PID.TID 0000.0001) %MON advcfl_W_hf_max              =   2.2050056630349E-03
(PID.TID 0000.0001) %MON pe_b_mean                    =  -8.3258446434879E-01
(PID.TID 0000.0001) %MON ke_max                       =   2.6710371953429E-06
(PID.TID 0000.0001) %MON ke_mean                      =   1.2518785468325E-08
(PID.TID 0000.0001) %MON ke_vol                       =   4.2725496859726E+12
(PID.TID 0000.0001) // =======================================================
(PID.TID 0000.0001) // End MONITOR dynamic field statistics
(PID.TID 0000.0001) // =======================================================
(PID.TID 0000.0001) // =======================================================
(PID.TID 0000.0001) // Begin OBCS MONITOR field statistics
(PID.TID 0000.0001) // =======================================================
(PID.TID 0000.0001) %MON obc_N_vVel_max               =  -2.8198554687705E-05
(PID.TID 0000.0001) %MON obc_N_vVel_min               =  -2.8198554687707E-05
(PID.TID 0000.0001) %MON obc_N_vVel_mean              =  -2.8198554687707E-05
(PID.TID 0000.0001) %MON obc_N_vVel_sd                =  -9.6056348632720E-23
(PID.TID 0000.0001) %MON obc_N_vVel_Int               =  -1.8611046093886E+03
(PID.TID 0000.0001) // =======================================================
(PID.TID 0000.0001) // End OBCS MONITOR field statistics
(PID.TID 0000.0001) // =======================================================
 cg2d: Sum(rhs),rhsMax =   4.52627649722360E+00  2.99862073068059E+02
(PID.TID 0000.0001)      cg2d_init_res =   1.11985493500017E-05
(PID.TID 0000.0001)      cg2d_iters(min,last) =      -1      85
(PID.TID 0000.0001)      cg2d_last_res =   6.72616720284194E-12
(PID.TID 0000.0001) // =======================================================
(PID.TID 0000.0001) // Begin MONITOR dynamic field statistics
(PID.TID 0000.0001) // =======================================================
(PID.TID 0000.0001) %MON time_tsnumber                =                   102
(PID.TID 0000.0001) %MON time_secondsf                =   1.0200000000000E+04
(PID.TID 0000.0001) %MON dynstat_eta_max              =   5.7948760050603E+00
(PID.TID 0000.0001) %MON dynstat_eta_min              =  -1.4202553672932E+01
(PID.TID 0000.0001) %MON dynstat_eta_mean             =  -2.5134419513643E+00
(PID.TID 0000.0001) %MON dynstat_eta_sd               =   4.9531831147515E+00
(PID.TID 0000.0001) %MON dynstat_eta_del2             =   2.0713999158191E-01
(PID.TID 0000.0001) %MON dynstat_uvel_max             =   1.8658276273200E-03
(PID.TID 0000.0001) %MON dynstat_uvel_min             =  -1.8835743125436E-03
(PID.TID 0000.0001) %MON dynstat_uvel_mean            =   3.8907232855342E-07
(PID.TID 0000.0001) %MON dynstat_uvel_sd              =   6.7227574845018E-05
(PID.TID 0000.0001) %MON dynstat_uvel_del2            =   3.6161915271768E-07
(PID.TID 0000.0001) %MON dynstat_vvel_max             =   2.0463880515820E-03
(PID.TID 0000.0001) %MON dynstat_vvel_min             =  -1.9277249325294E-03
(PID.TID 0000.0001) %MON dynstat_vvel_mean            =  -5.8130464837144E-05
(PID.TID 0000.0001) %MON dynstat_vvel_sd              =   1.3540218411650E-04
(PID.TID 0000.0001) %MON dynstat_vvel_del2            =   6.3273341079023E-07
(PID.TID 0000.0001) %MON dynstat_wvel_max             =   4.2940412886899E-04
(PID.TID 0000.0001) %MON dynstat_wvel_min             =  -3.7512678071269E-04
(PID.TID 0000.0001) %MON dynstat_wvel_mean            =  -1.8278342581773E-07
(PID.TID 0000.0001) %MON dynstat_wvel_sd              =   5.2941248765083E-05
(PID.TID 0000.0001) %MON dynstat_wvel_del2            =   2.8424406734719E-07
(PID.TID 0000.0001) %MON dynstat_theta_max            =   1.2000000000000E+00
(PID.TID 0000.0001) %MON dynstat_theta_min            =  -1.0000000000000E+00
(PID.TID 0000.0001) %MON dynstat_theta_mean           =   5.6913189218216E-01
(PID.TID 0000.0001) %MON dynstat_theta_sd             =   8.6859850282505E-01
(PID.TID 0000.0001) %MON dynstat_theta_del2           =   2.7129217584177E-06
(PID.TID 0000.0001) %MON dynstat_salt_max             =   3.4700000000000E+01
(PID.TID 0000.0001) %MON dynstat_salt_min             =   3.4000000000000E+01
(PID.TID 0000.0001) %MON dynstat_salt_mean            =   3.4499266899972E+01
(PID.TID 0000.0001) %MON dynstat_salt_sd              =   2.7637166998697E-01
(PID.TID 0000.0001) %MON dynstat_salt_del2            =   8.6194974503162E-07
(PID.TID 0000.0001) %MON advcfl_uvel_max              =   1.8835743125436E-04
(PID.TID 0000.0001) %MON advcfl_vvel_max              =   2.0463880515820E-04
(PID.TID 0000.0001) %MON advcfl_wvel_max              =   2.1470206443450E-03
(PID.TID 0000.0001) %MON advcfl_W_hf_max              =   2.1470206443450E-03
(PID.TID 0000.0001) %MON pe_b_mean                    =  -8.3256968845079E-01
(PID.TID 0000.0001) %MON ke_max                       =   2.7238317824493E-06
(PID.TID 0000.0001) %MON ke_mean                      =   1.3064730742413E-08
(PID.TID 0000.0001) %MON ke_vol                       =   4.2725498850832E+12
(PID.TID 0000.0001) // =======================================================
(PID.TID 0000.0001) // End MONITOR dynamic field statistics
(PID.TID 0000.0001) // =======================================================
(PID.TID 0000.0001) // =======================================================
(PID.TID 0000.0001) // Begin OBCS MONITOR field statistics
(PID.TID 0000.0001) // =======================================================
(PID.TID 0000.0001) %MON obc_N_vVel_max               =  -3.8897815416612E-05
(PID.TID 0000.0001) %MON obc_N_vVel_min               =  -3.8897815416612E-05
(PID.TID 0000.0001) %MON obc_N_vVel_mean              =  -3.8897815416612E-05
(PID.TID 0000.0001) %MON obc_N_vVel_sd                =  -1.2821299494572E-23
(PID.TID 0000.0001) %MON obc_N_vVel_Int               =  -2.5672558174964E+03
(PID.TID 0000.0001) // =======================================================
(PID.TID 0000.0001) // End OBCS MONITOR field statistics
(PID.TID 0000.0001) // =======================================================
 cg2d: Sum(rhs),rhsMax =   4.52617581505747E+00  2.99862186723439E+02
(PID.TID 0000.0001)      cg2d_init_res =   1.10921567306726E-05
(PID.TID 0000.0001)      cg2d_iters(min,last) =      -1      85
(PID.TID 0000.0001)      cg2d_last_res =   6.95089237346467E-12
(PID.TID 0000.0001) // =======================================================
(PID.TID 0000.0001) // Begin MONITOR dynamic field statistics
(PID.TID 0000.0001) // =======================================================
(PID.TID 0000.0001) %MON time_tsnumber                =                   103
(PID.TID 0000.0001) %MON time_secondsf                =   1.0300000000000E+04
(PID.TID 0000.0001) %MON dynstat_eta_max              =   5.7950596555229E+00
(PID.TID 0000.0001) %MON dynstat_eta_min              =  -1.4202463899326E+01
(PID.TID 0000.0001) %MON dynstat_eta_mean             =  -2.5133869951812E+00
(PID.TID 0000.0001) %MON dynstat_eta_sd               =   4.9531588274894E+00
(PID.TID 0000.0001) %MON dynstat_eta_del2             =   2.0713999366647E-01
(PID.TID 0000.0001) %MON dynstat_uvel_max             =   1.8849032363093E-03
(PID.TID 0000.0001) %MON dynstat_uvel_min             =  -1.9034192260925E-03
(PID.TID 0000.0001) %MON dynstat_uvel_mean            =   2.5331128742564E-07
(PID.TID 0000.0001) %MON dynstat_uvel_sd              =   6.7506796551669E-05
(PID.TID 0000.0001) %MON dynstat_uvel_del2            =   3.6349456640112E-07
(PID.TID 0000.0001) %MON dynstat_vvel_max             =   2.0638081011537E-03
(PID.TID 0000.0001) %MON dynstat_vvel_min             =  -1.9568852017269E-03
(PID.TID 0000.0001) %MON dynstat_vvel_mean            =  -6.5982907706638E-05
(PID.TID 0000.0001) %MON dynstat_vvel_sd              =   1.3523488404711E-04
(PID.TID 0000.0001) %MON dynstat_vvel_del2            =   6.3152530540552E-07
(PID.TID 0000.0001) %MON dynstat_wvel_max             =   4.0889172408801E-04
(PID.TID 0000.0001) %MON dynstat_wvel_min             =  -3.7056353161673E-04
(PID.TID 0000.0001) %MON dynstat_wvel_mean            =  -1.7198630781503E-07
(PID.TID 0000.0001) %MON dynstat_wvel_sd              =   5.2554994870466E-05
(PID.TID 0000.0001) %MON dynstat_wvel_del2            =   2.8065185435148E-07
(PID.TID 0000.0001) %MON dynstat_theta_max            =   1.2000000000000E+00
(PID.TID 0000.0001) %MON dynstat_theta_min            =  -1.0000000000000E+00
(PID.TID 0000.0001) %MON dynstat_theta_mean           =   5.6913160634748E-01
(PID.TID 0000.0001) %MON dynstat_theta_sd             =   8.6859838183584E-01
(PID.TID 0000.0001) %MON dynstat_theta_del2           =   2.6991384662406E-06
(PID.TID 0000.0001) %MON dynstat_salt_max             =   3.4700000000000E+01
(PID.TID 0000.0001) %MON dynstat_salt_min             =   3.4000000000000E+01
(PID.TID 0000.0001) %MON dynstat_salt_mean            =   3.4499266788001E+01
(PID.TID 0000.0001) %MON dynstat_salt_sd              =   2.7637162579549E-01
(PID.TID 0000.0001) %MON dynstat_salt_del2            =   8.5751987496919E-07
(PID.TID 0000.0001) %MON advcfl_uvel_max              =   1.9034192260925E-04
(PID.TID 0000.0001) %MON advcfl_vvel_max              =   2.0638081011537E-04
(PID.TID 0000.0001) %MON advcfl_wvel_max              =   2.0444586204400E-03
(PID.TID 0000.0001) %MON advcfl_W_hf_max              =   2.0444586204400E-03
(PID.TID 0000.0001) %MON pe_b_mean                    =  -8.3255308602700E-01
(PID.TID 0000.0001) %MON ke_max                       =   2.7769442265885E-06
(PID.TID 0000.0001) %MON ke_mean                      =   1.3544875812618E-08
(PID.TID 0000.0001) %MON ke_vol                       =   4.2725501548089E+12
(PID.TID 0000.0001) // =======================================================
(PID.TID 0000.0001) // End MONITOR dynamic field statistics
(PID.TID 0000.0001) // =======================================================
(PID.TID 0000.0001) // =======================================================
(PID.TID 0000.0001) // Begin OBCS MONITOR field statistics
(PID.TID 0000.0001) // =======================================================
(PID.TID 0000.0001) %MON obc_N_vVel_max               =  -4.7490859839744E-05
(PID.TID 0000.0001) %MON obc_N_vVel_min               =  -4.7490859839746E-05
(PID.TID 0000.0001) %MON obc_N_vVel_mean              =  -4.7490859839744E-05
(PID.TID 0000.0001) %MON obc_N_vVel_sd                =   1.2370465364016E-11
(PID.TID 0000.0001) %MON obc_N_vVel_Int               =  -3.1343967494231E+03
(PID.TID 0000.0001) // =======================================================
(PID.TID 0000.0001) // End OBCS MONITOR field statistics
(PID.TID 0000.0001) // =======================================================
 cg2d: Sum(rhs),rhsMax =   4.52606230755396E+00  2.99862302524057E+02
(PID.TID 0000.0001)      cg2d_init_res =   1.09770958378635E-05
(PID.TID 0000.0001)      cg2d_iters(min,last) =      -1      85
(PID.TID 0000.0001)      cg2d_last_res =   6.92078606373209E-12
(PID.TID 0000.0001) // =======================================================
(PID.TID 0000.0001) // Begin MONITOR dynamic field statistics
(PID.TID 0000.0001) // =======================================================
(PID.TID 0000.0001) %MON time_tsnumber                =                   104
(PID.TID 0000.0001) %MON time_secondsf                =   1.0400000000000E+04
(PID.TID 0000.0001) %MON dynstat_eta_max              =   5.7952503187379E+00
(PID.TID 0000.0001) %MON dynstat_eta_min              =  -1.4202366680000E+01
(PID.TID 0000.0001) %MON dynstat_eta_mean             =  -2.5133249350194E+00
(PID.TID 0000.0001) %MON dynstat_eta_sd               =   4.9531342600494E+00
(PID.TID 0000.0001) %MON dynstat_eta_del2             =   2.0713999571727E-01
(PID.TID 0000.0001) %MON dynstat_uvel_max             =   1.9037562331974E-03
(PID.TID 0000.0001) %MON dynstat_uvel_min             =  -1.9230799577912E-03
(PID.TID 0000.0001) %MON dynstat_uvel_mean            =   1.1930106251808E-07
(PID.TID 0000.0001) %MON dynstat_uvel_sd              =   6.7773980241035E-05
(PID.TID 0000.0001) %MON dynstat_uvel_del2            =   3.6530898355749E-07
(PID.TID 0000.0001) %MON dynstat_vvel_max             =   2.0844861581804E-03
(PID.TID 0000.0001) %MON dynstat_vvel_min             =  -1.9824495606677E-03
(PID.TID 0000.0001) %MON dynstat_vvel_mean            =  -7.1186084870012E-05
(PID.TID 0000.0001) %MON dynstat_vvel_sd              =   1.3509066268502E-04
(PID.TID 0000.0001) %MON dynstat_vvel_del2            =   6.3217132195975E-07
(PID.TID 0000.0001) %MON dynstat_wvel_max             =   3.7992510901719E-04
(PID.TID 0000.0001) %MON dynstat_wvel_min             =  -3.6041065989079E-04
(PID.TID 0000.0001) %MON dynstat_wvel_mean            =  -1.5713874008417E-07
(PID.TID 0000.0001) %MON dynstat_wvel_sd              =   5.2281308275648E-05
(PID.TID 0000.0001) %MON dynstat_wvel_del2            =   2.7880651647587E-07
(PID.TID 0000.0001) %MON dynstat_theta_max            =   1.2000000000000E+00
(PID.TID 0000.0001) %MON dynstat_theta_min            =  -1.0000000000000E+00
(PID.TID 0000.0001) %MON dynstat_theta_mean           =   5.6913131809661E-01
(PID.TID 0000.0001) %MON dynstat_theta_sd             =   8.6859826144387E-01
(PID.TID 0000.0001) %MON dynstat_theta_del2           =   2.6842694972878E-06
(PID.TID 0000.0001) %MON dynstat_salt_max             =   3.4700000000000E+01
(PID.TID 0000.0001) %MON dynstat_salt_min             =   3.4000000000000E+01
(PID.TID 0000.0001) %MON dynstat_salt_mean            =   3.4499266675261E+01
(PID.TID 0000.0001) %MON dynstat_salt_sd              =   2.7637158179367E-01
(PID.TID 0000.0001) %MON dynstat_salt_del2            =   8.5274562771571E-07
(PID.TID 0000.0001) %MON advcfl_uvel_max              =   1.9230799577912E-04
(PID.TID 0000.0001) %MON advcfl_vvel_max              =   2.0844861581804E-04
(PID.TID 0000.0001) %MON advcfl_wvel_max              =   1.8996255450859E-03
(PID.TID 0000.0001) %MON advcfl_W_hf_max              =   1.8996255450859E-03
(PID.TID 0000.0001) %MON pe_b_mean                    =  -8.3253532286287E-01
(PID.TID 0000.0001) %MON ke_max                       =   2.8303667805117E-06
(PID.TID 0000.0001) %MON ke_mean                      =   1.3897396894308E-08
(PID.TID 0000.0001) %MON ke_vol                       =   4.2725504812486E+12
(PID.TID 0000.0001) // =======================================================
(PID.TID 0000.0001) // End MONITOR dynamic field statistics
(PID.TID 0000.0001) // =======================================================
(PID.TID 0000.0001) // =======================================================
(PID.TID 0000.0001) // Begin OBCS MONITOR field statistics
(PID.TID 0000.0001) // =======================================================
(PID.TID 0000.0001) %MON obc_N_vVel_max               =  -5.3884435183727E-05
(PID.TID 0000.0001) %MON obc_N_vVel_min               =  -5.3884435183728E-05
(PID.TID 0000.0001) %MON obc_N_vVel_mean              =  -5.3884435183727E-05
(PID.TID 0000.0001) %MON obc_N_vVel_sd                =   1.2942336498561E-11
(PID.TID 0000.0001) %MON obc_N_vVel_Int               =  -3.5563727221260E+03
(PID.TID 0000.0001) // =======================================================
(PID.TID 0000.0001) // End OBCS MONITOR field statistics
(PID.TID 0000.0001) // =======================================================
 cg2d: Sum(rhs),rhsMax =   4.52594045188397E+00  2.99862419260824E+02
(PID.TID 0000.0001)      cg2d_init_res =   1.08590694255415E-05
(PID.TID 0000.0001)      cg2d_iters(min,last) =      -1      84
(PID.TID 0000.0001)      cg2d_last_res =   9.06635646856806E-12
(PID.TID 0000.0001) // =======================================================
(PID.TID 0000.0001) // Begin MONITOR dynamic field statistics
(PID.TID 0000.0001) // =======================================================
(PID.TID 0000.0001) %MON time_tsnumber                =                   105
(PID.TID 0000.0001) %MON time_secondsf                =   1.0500000000000E+04
(PID.TID 0000.0001) %MON dynstat_eta_max              =   5.7954421962186E+00
(PID.TID 0000.0001) %MON dynstat_eta_min              =  -1.4202265721189E+01
(PID.TID 0000.0001) %MON dynstat_eta_mean             =  -2.5132582469118E+00
(PID.TID 0000.0001) %MON dynstat_eta_sd               =   4.9531102052780E+00
(PID.TID 0000.0001) %MON dynstat_eta_del2             =   2.0713999772557E-01
(PID.TID 0000.0001) %MON dynstat_uvel_max             =   1.9223874244041E-03
(PID.TID 0000.0001) %MON dynstat_uvel_min             =  -1.9425550136098E-03
(PID.TID 0000.0001) %MON dynstat_uvel_mean            =  -1.0242987748172E-08
(PID.TID 0000.0001) %MON dynstat_uvel_sd              =   6.8030546432257E-05
(PID.TID 0000.0001) %MON dynstat_uvel_del2            =   3.6706376395969E-07
(PID.TID 0000.0001) %MON dynstat_vvel_max             =   2.1083305575544E-03
(PID.TID 0000.0001) %MON dynstat_vvel_min             =  -2.0045112977458E-03
(PID.TID 0000.0001) %MON dynstat_vvel_mean            =  -7.3771608885195E-05
(PID.TID 0000.0001) %MON dynstat_vvel_sd              =   1.3498096122875E-04
(PID.TID 0000.0001) %MON dynstat_vvel_del2            =   6.3449793847583E-07
(PID.TID 0000.0001) %MON dynstat_wvel_max             =   3.4315955470223E-04
(PID.TID 0000.0001) %MON dynstat_wvel_min             =  -3.6888058179000E-04
(PID.TID 0000.0001) %MON dynstat_wvel_mean            =  -1.3889630269316E-07
(PID.TID 0000.0001) %MON dynstat_wvel_sd              =   5.2133837339039E-05
(PID.TID 0000.0001) %MON dynstat_wvel_del2            =   2.7873767300330E-07
(PID.TID 0000.0001) %MON dynstat_theta_max            =   1.2000000000000E+00
(PID.TID 0000.0001) %MON dynstat_theta_min            =  -1.0000000000000E+00
(PID.TID 0000.0001) %MON dynstat_theta_mean           =   5.6913102843932E-01
(PID.TID 0000.0001) %MON dynstat_theta_sd             =   8.6859814110218E-01
(PID.TID 0000.0001) %MON dynstat_theta_del2           =   2.6683228601716E-06
(PID.TID 0000.0001) %MON dynstat_salt_max             =   3.4700000000000E+01
(PID.TID 0000.0001) %MON dynstat_salt_min             =   3.4000000000000E+01
(PID.TID 0000.0001) %MON dynstat_salt_mean            =   3.4499266562072E+01
(PID.TID 0000.0001) %MON dynstat_salt_sd              =   2.7637153780792E-01
(PID.TID 0000.0001) %MON dynstat_salt_del2            =   8.4762984762687E-07
(PID.TID 0000.0001) %MON advcfl_uvel_max              =   1.9425550136098E-04
(PID.TID 0000.0001) %MON advcfl_vvel_max              =   2.1083305575544E-04
(PID.TID 0000.0001) %MON advcfl_wvel_max              =   1.8444029089500E-03
(PID.TID 0000.0001) %MON advcfl_W_hf_max              =   1.8444029089500E-03
(PID.TID 0000.0001) %MON pe_b_mean                    =  -8.3251705289432E-01
(PID.TID 0000.0001) %MON ke_max                       =   2.8840809217816E-06
(PID.TID 0000.0001) %MON ke_mean                      =   1.4085232773697E-08
(PID.TID 0000.0001) %MON ke_vol                       =   4.2725508498860E+12
(PID.TID 0000.0001) // =======================================================
(PID.TID 0000.0001) // End MONITOR dynamic field statistics
(PID.TID 0000.0001) // =======================================================
(PID.TID 0000.0001) // =======================================================
(PID.TID 0000.0001) // Begin OBCS MONITOR field statistics
(PID.TID 0000.0001) // =======================================================
(PID.TID 0000.0001) %MON obc_N_vVel_max               =  -5.8049565490708E-05
(PID.TID 0000.0001) %MON obc_N_vVel_min               =  -5.8049565490709E-05
(PID.TID 0000.0001) %MON obc_N_vVel_mean              =  -5.8049565490708E-05
(PID.TID 0000.0001) %MON obc_N_vVel_sd                =  -1.6543612251061E-24
(PID.TID 0000.0001) %MON obc_N_vVel_Int               =  -3.8312713223867E+03
(PID.TID 0000.0001) // =======================================================
(PID.TID 0000.0001) // End OBCS MONITOR field statistics
(PID.TID 0000.0001) // =======================================================
 cg2d: Sum(rhs),rhsMax =   4.52581466072004E+00  2.99862535752536E+02
(PID.TID 0000.0001)      cg2d_init_res =   1.07412430553541E-05
(PID.TID 0000.0001)      cg2d_iters(min,last) =      -1      77
(PID.TID 0000.0001)      cg2d_last_res =   9.75326111741381E-12
(PID.TID 0000.0001) // =======================================================
(PID.TID 0000.0001) // Begin MONITOR dynamic field statistics
(PID.TID 0000.0001) // =======================================================
(PID.TID 0000.0001) %MON time_tsnumber                =                   106
(PID.TID 0000.0001) %MON time_secondsf                =   1.0600000000000E+04
(PID.TID 0000.0001) %MON dynstat_eta_max              =   5.7956298179014E+00
(PID.TID 0000.0001) %MON dynstat_eta_min              =  -1.4202164598670E+01
(PID.TID 0000.0001) %MON dynstat_eta_mean             =  -2.5131893713139E+00
(PID.TID 0000.0001) %MON dynstat_eta_sd               =   4.9530873914314E+00
(PID.TID 0000.0001) %MON dynstat_eta_del2             =   2.0713999968447E-01
(PID.TID 0000.0001) %MON dynstat_uvel_max             =   1.9407964941998E-03
(PID.TID 0000.0001) %MON dynstat_uvel_min             =  -1.9618421049401E-03
(PID.TID 0000.0001) %MON dynstat_uvel_mean            =  -1.3304694221446E-07
(PID.TID 0000.0001) %MON dynstat_uvel_sd              =   6.8278160856385E-05
(PID.TID 0000.0001) %MON dynstat_uvel_del2            =   3.6876020132311E-07
(PID.TID 0000.0001) %MON dynstat_vvel_max             =   2.1351668242975E-03
(PID.TID 0000.0001) %MON dynstat_vvel_min             =  -2.0232459503013E-03
(PID.TID 0000.0001) %MON dynstat_vvel_mean            =  -7.3838590220574E-05
(PID.TID 0000.0001) %MON dynstat_vvel_sd              =   1.3491160459708E-04
(PID.TID 0000.0001) %MON dynstat_vvel_del2            =   6.3811220212550E-07
(PID.TID 0000.0001) %MON dynstat_wvel_max             =   3.0185746973573E-04
(PID.TID 0000.0001) %MON dynstat_wvel_min             =  -3.7907329154209E-04
(PID.TID 0000.0001) %MON dynstat_wvel_mean            =  -1.1796305390851E-07
(PID.TID 0000.0001) %MON dynstat_wvel_sd              =   5.2108292195581E-05
(PID.TID 0000.0001) %MON dynstat_wvel_del2            =   2.8021515538817E-07
(PID.TID 0000.0001) %MON dynstat_theta_max            =   1.2000000000000E+00
(PID.TID 0000.0001) %MON dynstat_theta_min            =  -1.0000000000000E+00
(PID.TID 0000.0001) %MON dynstat_theta_mean           =   5.6913073836013E-01
(PID.TID 0000.0001) %MON dynstat_theta_sd             =   8.6859802051859E-01
(PID.TID 0000.0001) %MON dynstat_theta_del2           =   2.6514544219347E-06
(PID.TID 0000.0001) %MON dynstat_salt_max             =   3.4700000000000E+01
(PID.TID 0000.0001) %MON dynstat_salt_min             =   3.4000000000000E+01
(PID.TID 0000.0001) %MON dynstat_salt_mean            =   3.4499266448749E+01
(PID.TID 0000.0001) %MON dynstat_salt_sd              =   2.7637149374527E-01
(PID.TID 0000.0001) %MON dynstat_salt_del2            =   8.4222246703894E-07
(PID.TID 0000.0001) %MON advcfl_uvel_max              =   1.9618421049401E-04
(PID.TID 0000.0001) %MON advcfl_vvel_max              =   2.1351668242975E-04
(PID.TID 0000.0001) %MON advcfl_wvel_max              =   1.8953664577104E-03
(PID.TID 0000.0001) %MON advcfl_W_hf_max              =   1.8953664577104E-03
(PID.TID 0000.0001) %MON pe_b_mean                    =  -8.3249890160426E-01
(PID.TID 0000.0001) %MON ke_max                       =   2.9380577673444E-06
(PID.TID 0000.0001) %MON ke_mean                      =   1.4096469936575E-08
(PID.TID 0000.0001) %MON ke_vol                       =   4.2725512460133E+12
(PID.TID 0000.0001) // =======================================================
(PID.TID 0000.0001) // End MONITOR dynamic field statistics
(PID.TID 0000.0001) // =======================================================
(PID.TID 0000.0001) // =======================================================
(PID.TID 0000.0001) // Begin OBCS MONITOR field statistics
(PID.TID 0000.0001) // =======================================================
(PID.TID 0000.0001) %MON obc_N_vVel_max               =  -6.0018287708569E-05
(PID.TID 0000.0001) %MON obc_N_vVel_min               =  -6.0018287708571E-05
(PID.TID 0000.0001) %MON obc_N_vVel_mean              =  -6.0018287708569E-05
(PID.TID 0000.0001) %MON obc_N_vVel_sd                =   6.1348771683843E-12
(PID.TID 0000.0001) %MON obc_N_vVel_Int               =  -3.9612069887656E+03
(PID.TID 0000.0001) // =======================================================
(PID.TID 0000.0001) // End OBCS MONITOR field statistics
(PID.TID 0000.0001) // =======================================================
 cg2d: Sum(rhs),rhsMax =   4.52568916908945E+00  2.99862650875811E+02
(PID.TID 0000.0001)      cg2d_init_res =   1.06249440516236E-05
(PID.TID 0000.0001)      cg2d_iters(min,last) =      -1      83
(PID.TID 0000.0001)      cg2d_last_res =   8.29780834117290E-12
(PID.TID 0000.0001) // =======================================================
(PID.TID 0000.0001) // Begin MONITOR dynamic field statistics
(PID.TID 0000.0001) // =======================================================
(PID.TID 0000.0001) %MON time_tsnumber                =                   107
(PID.TID 0000.0001) %MON time_secondsf                =   1.0700000000000E+04
(PID.TID 0000.0001) %MON dynstat_eta_max              =   5.7958081751026E+00
(PID.TID 0000.0001) %MON dynstat_eta_min              =  -1.4202066662842E+01
(PID.TID 0000.0001) %MON dynstat_eta_mean             =  -2.5131206505243E+00
(PID.TID 0000.0001) %MON dynstat_eta_sd               =   4.9530664669649E+00
(PID.TID 0000.0001) %MON dynstat_eta_del2             =   2.0714000158784E-01
(PID.TID 0000.0001) %MON dynstat_uvel_max             =   1.9589823462667E-03
(PID.TID 0000.0001) %MON dynstat_uvel_min             =  -1.9809382336433E-03
(PID.TID 0000.0001) %MON dynstat_uvel_mean            =  -2.4719576165680E-07
(PID.TID 0000.0001) %MON dynstat_uvel_sd              =   6.8518656795324E-05
(PID.TID 0000.0001) %MON dynstat_uvel_del2            =   3.7039953654343E-07
(PID.TID 0000.0001) %MON dynstat_vvel_max             =   2.1647476917295E-03
(PID.TID 0000.0001) %MON dynstat_vvel_min             =  -2.0389007823001E-03
(PID.TID 0000.0001) %MON dynstat_vvel_mean            =  -7.1546701268540E-05
(PID.TID 0000.0001) %MON dynstat_vvel_sd              =   1.3488193506902E-04
(PID.TID 0000.0001) %MON dynstat_vvel_del2            =   6.4247200922494E-07
(PID.TID 0000.0001) %MON dynstat_wvel_max             =   3.3412268166487E-04
(PID.TID 0000.0001) %MON dynstat_wvel_min             =  -3.8531699818879E-04
(PID.TID 0000.0001) %MON dynstat_wvel_mean            =  -9.5069370654910E-08
(PID.TID 0000.0001) %MON dynstat_wvel_sd              =   5.2184028451828E-05
(PID.TID 0000.0001) %MON dynstat_wvel_del2            =   2.8280404914953E-07
(PID.TID 0000.0001) %MON dynstat_theta_max            =   1.2000000000000E+00
(PID.TID 0000.0001) %MON dynstat_theta_min            =  -1.0000000000000E+00
(PID.TID 0000.0001) %MON dynstat_theta_mean           =   5.6913044879178E-01
(PID.TID 0000.0001) %MON dynstat_theta_sd             =   8.6859789937695E-01
(PID.TID 0000.0001) %MON dynstat_theta_del2           =   2.6339438037444E-06
(PID.TID 0000.0001) %MON dynstat_salt_max             =   3.4700000000000E+01
(PID.TID 0000.0001) %MON dynstat_salt_min             =   3.4000000000000E+01
(PID.TID 0000.0001) %MON dynstat_salt_mean            =   3.4499266335588E+01
(PID.TID 0000.0001) %MON dynstat_salt_sd              =   2.7637144950542E-01
(PID.TID 0000.0001) %MON dynstat_salt_del2            =   8.3661284069166E-07
(PID.TID 0000.0001) %MON advcfl_uvel_max              =   1.9809382336433E-04
(PID.TID 0000.0001) %MON advcfl_vvel_max              =   2.1647476917295E-04
(PID.TID 0000.0001) %MON advcfl_wvel_max              =   1.9265849909439E-03
(PID.TID 0000.0001) %MON advcfl_W_hf_max              =   1.9265849909439E-03
(PID.TID 0000.0001) %MON pe_b_mean                    =  -8.3248145122543E-01
(PID.TID 0000.0001) %MON ke_max                       =   2.9922583907290E-06
(PID.TID 0000.0001) %MON ke_mean                      =   1.3942088594642E-08
(PID.TID 0000.0001) %MON ke_vol                       =   4.2725516551344E+12
(PID.TID 0000.0001) // =======================================================
(PID.TID 0000.0001) // End MONITOR dynamic field statistics
(PID.TID 0000.0001) // =======================================================
(PID.TID 0000.0001) // =======================================================
(PID.TID 0000.0001) // Begin OBCS MONITOR field statistics
(PID.TID 0000.0001) // =======================================================
(PID.TID 0000.0001) %MON obc_N_vVel_max               =  -5.9878944211683E-05
(PID.TID 0000.0001) %MON obc_N_vVel_min               =  -5.9878944211684E-05
(PID.TID 0000.0001) %MON obc_N_vVel_mean              =  -5.9878944211684E-05
(PID.TID 0000.0001) %MON obc_N_vVel_sd                =  -3.1474222307643E-22
(PID.TID 0000.0001) %MON obc_N_vVel_Int               =  -3.9520103179712E+03
(PID.TID 0000.0001) // =======================================================
(PID.TID 0000.0001) // End OBCS MONITOR field statistics
(PID.TID 0000.0001) // =======================================================
 cg2d: Sum(rhs),rhsMax =   4.52556793304107E+00  2.99862763597908E+02
(PID.TID 0000.0001)      cg2d_init_res =   1.05082622432770E-05
(PID.TID 0000.0001)      cg2d_iters(min,last) =      -1      84
(PID.TID 0000.0001)      cg2d_last_res =   8.58450701584088E-12
(PID.TID 0000.0001) // =======================================================
(PID.TID 0000.0001) // Begin MONITOR dynamic field statistics
(PID.TID 0000.0001) // =======================================================
(PID.TID 0000.0001) %MON time_tsnumber                =                   108
(PID.TID 0000.0001) %MON time_secondsf                =   1.0800000000000E+04
(PID.TID 0000.0001) %MON dynstat_eta_max              =   5.7959728163626E+00
(PID.TID 0000.0001) %MON dynstat_eta_min              =  -1.4201974972386E+01
(PID.TID 0000.0001) %MON dynstat_eta_mean             =  -2.5130542726885E+00
(PID.TID 0000.0001) %MON dynstat_eta_sd               =   4.9530479883552E+00
(PID.TID 0000.0001) %MON dynstat_eta_del2             =   2.0714000343216E-01
(PID.TID 0000.0001) %MON dynstat_uvel_max             =   1.9769435869108E-03
(PID.TID 0000.0001) %MON dynstat_uvel_min             =  -1.9998398437302E-03
(PID.TID 0000.0001) %MON dynstat_uvel_mean            =  -3.5107924449600E-07
(PID.TID 0000.0001) %MON dynstat_uvel_sd              =   6.8753939875910E-05
(PID.TID 0000.0001) %MON dynstat_uvel_del2            =   3.7198296414696E-07
(PID.TID 0000.0001) %MON dynstat_vvel_max             =   2.1967640111082E-03
(PID.TID 0000.0001) %MON dynstat_vvel_min             =  -2.0517841855430E-03
(PID.TID 0000.0001) %MON dynstat_vvel_mean            =  -6.7108067081956E-05
(PID.TID 0000.0001) %MON dynstat_vvel_sd              =   1.3488509400730E-04
(PID.TID 0000.0001) %MON dynstat_vvel_del2            =   6.4697081378672E-07
(PID.TID 0000.0001) %MON dynstat_wvel_max             =   3.6038236095016E-04
(PID.TID 0000.0001) %MON dynstat_wvel_min             =  -3.8740748214256E-04
(PID.TID 0000.0001) %MON dynstat_wvel_mean            =  -7.0950527844058E-08
(PID.TID 0000.0001) %MON dynstat_wvel_sd              =   5.2328001425326E-05
(PID.TID 0000.0001) %MON dynstat_wvel_del2            =   2.8595103426080E-07
(PID.TID 0000.0001) %MON dynstat_theta_max            =   1.2000000000000E+00
(PID.TID 0000.0001) %MON dynstat_theta_min            =  -1.0000000000000E+00
(PID.TID 0000.0001) %MON dynstat_theta_mean           =   5.6913016059378E-01
(PID.TID 0000.0001) %MON dynstat_theta_sd             =   8.6859777731982E-01
(PID.TID 0000.0001) %MON dynstat_theta_del2           =   2.6161514457954E-06
(PID.TID 0000.0001) %MON dynstat_salt_max             =   3.4700000000000E+01
(PID.TID 0000.0001) %MON dynstat_salt_min             =   3.4000000000000E+01
(PID.TID 0000.0001) %MON dynstat_salt_mean            =   3.4499266222862E+01
(PID.TID 0000.0001) %MON dynstat_salt_sd              =   2.7637140497512E-01
(PID.TID 0000.0001) %MON dynstat_salt_del2            =   8.3091603080629E-07
(PID.TID 0000.0001) %MON advcfl_uvel_max              =   1.9998398437302E-04
(PID.TID 0000.0001) %MON advcfl_vvel_max              =   2.1967640111082E-04
(PID.TID 0000.0001) %MON advcfl_wvel_max              =   1.9370374107128E-03
(PID.TID 0000.0001) %MON advcfl_W_hf_max              =   1.9370374107128E-03
(PID.TID 0000.0001) %MON pe_b_mean                    =  -8.3246522804125E-01
(PID.TID 0000.0001) %MON ke_max                       =   3.0466342115579E-06
(PID.TID 0000.0001) %MON ke_mean                      =   1.3651640366203E-08
(PID.TID 0000.0001) %MON ke_vol                       =   4.2725520633359E+12
(PID.TID 0000.0001) // =======================================================
(PID.TID 0000.0001) // End MONITOR dynamic field statistics
(PID.TID 0000.0001) // =======================================================
(PID.TID 0000.0001) // =======================================================
(PID.TID 0000.0001) // Begin OBCS MONITOR field statistics
(PID.TID 0000.0001) // =======================================================
(PID.TID 0000.0001) %MON obc_N_vVel_max               =  -5.7770272324318E-05
(PID.TID 0000.0001) %MON obc_N_vVel_min               =  -5.7770272324319E-05
(PID.TID 0000.0001) %MON obc_N_vVel_mean              =  -5.7770272324319E-05
(PID.TID 0000.0001) %MON obc_N_vVel_sd                =  -2.0969028528219E-22
(PID.TID 0000.0001) %MON obc_N_vVel_Int               =  -3.8128379734051E+03
(PID.TID 0000.0001) // =======================================================
(PID.TID 0000.0001) // End OBCS MONITOR field statistics
(PID.TID 0000.0001) // =======================================================
 cg2d: Sum(rhs),rhsMax =   4.51939116470594E+00  2.99862872998328E+02
(PID.TID 0000.0001)      cg2d_init_res =   3.58648563592167E-05
(PID.TID 0000.0001)      cg2d_iters(min,last) =      -1      88
(PID.TID 0000.0001)      cg2d_last_res =   9.40760656525720E-12
(PID.TID 0000.0001) // =======================================================
(PID.TID 0000.0001) // Begin MONITOR dynamic field statistics
(PID.TID 0000.0001) // =======================================================
(PID.TID 0000.0001) %MON time_tsnumber                =                   109
(PID.TID 0000.0001) %MON time_secondsf                =   1.0900000000000E+04
(PID.TID 0000.0001) %MON dynstat_eta_max              =   5.7975797862863E+00
(PID.TID 0000.0001) %MON dynstat_eta_min              =  -1.4195326796308E+01
(PID.TID 0000.0001) %MON dynstat_eta_mean             =  -2.5096252200963E+00
(PID.TID 0000.0001) %MON dynstat_eta_sd               =   4.9518828700244E+00
(PID.TID 0000.0001) %MON dynstat_eta_del2             =   2.0713999327115E-01
(PID.TID 0000.0001) %MON dynstat_uvel_max             =   1.9946001830249E-03
(PID.TID 0000.0001) %MON dynstat_uvel_min             =  -2.0185429763977E-03
(PID.TID 0000.0001) %MON dynstat_uvel_mean            =  -4.4338774183651E-07
(PID.TID 0000.0001) %MON dynstat_uvel_sd              =   6.8986702835496E-05
(PID.TID 0000.0001) %MON dynstat_uvel_del2            =   3.7351661308128E-07
(PID.TID 0000.0001) %MON dynstat_vvel_max             =   2.2308126535453E-03
(PID.TID 0000.0001) %MON dynstat_vvel_min             =  -2.0622806106250E-03
(PID.TID 0000.0001) %MON dynstat_vvel_mean            =  -6.0777301339915E-05
(PID.TID 0000.0001) %MON dynstat_vvel_sd              =   1.3490875988039E-04
(PID.TID 0000.0001) %MON dynstat_vvel_del2            =   6.5102617551903E-07
(PID.TID 0000.0001) %MON dynstat_wvel_max             =   3.8005331709342E-04
(PID.TID 0000.0001) %MON dynstat_wvel_min             =  -3.8004722128839E-04
(PID.TID 0000.0001) %MON dynstat_wvel_mean            =  -4.6284586252801E-08
(PID.TID 0000.0001) %MON dynstat_wvel_sd              =   5.2500361363872E-05
(PID.TID 0000.0001) %MON dynstat_wvel_del2            =   2.8907884256958E-07
(PID.TID 0000.0001) %MON dynstat_theta_max            =   1.2000000000000E+00
(PID.TID 0000.0001) %MON dynstat_theta_min            =  -1.0000000000000E+00
(PID.TID 0000.0001) %MON dynstat_theta_mean           =   5.6912987455269E-01
(PID.TID 0000.0001) %MON dynstat_theta_sd             =   8.6859764667545E-01
(PID.TID 0000.0001) %MON dynstat_theta_del2           =   2.6287200967629E-06
(PID.TID 0000.0001) %MON dynstat_salt_max             =   3.4700000000000E+01
(PID.TID 0000.0001) %MON dynstat_salt_min             =   3.4000000000000E+01
(PID.TID 0000.0001) %MON dynstat_salt_mean            =   3.4499266110822E+01
(PID.TID 0000.0001) %MON dynstat_salt_sd              =   2.7637135770750E-01
(PID.TID 0000.0001) %MON dynstat_salt_del2            =   8.3491653486381E-07
(PID.TID 0000.0001) %MON advcfl_uvel_max              =   2.0185429763977E-04
(PID.TID 0000.0001) %MON advcfl_vvel_max              =   2.2308126535453E-04
(PID.TID 0000.0001) %MON advcfl_wvel_max              =   1.9002665854671E-03
(PID.TID 0000.0001) %MON advcfl_W_hf_max              =   1.9002665854671E-03
(PID.TID 0000.0001) %MON pe_b_mean                    =  -8.3144331741034E-01
(PID.TID 0000.0001) %MON ke_max                       =   3.1011273930164E-06
(PID.TID 0000.0001) %MON ke_mean                      =   1.3267490487476E-08
(PID.TID 0000.0001) %MON ke_vol                       =   4.2725524576202E+12
(PID.TID 0000.0001) // =======================================================
(PID.TID 0000.0001) // End MONITOR dynamic field statistics
(PID.TID 0000.0001) // =======================================================
(PID.TID 0000.0001) // =======================================================
(PID.TID 0000.0001) // Begin OBCS MONITOR field statistics
(PID.TID 0000.0001) // =======================================================
(PID.TID 0000.0001) %MON obc_N_vVel_max               =  -5.3874506745782E-05
(PID.TID 0000.0001) %MON obc_N_vVel_min               =  -5.3874506745784E-05
(PID.TID 0000.0001) %MON obc_N_vVel_mean              =  -5.3874506745784E-05
(PID.TID 0000.0001) %MON obc_N_vVel_sd                =  -1.1539169545115E-22
(PID.TID 0000.0001) %MON obc_N_vVel_Int               =  -3.5557174452218E+03
(PID.TID 0000.0001) // =======================================================
(PID.TID 0000.0001) // End OBCS MONITOR field statistics
(PID.TID 0000.0001) // =======================================================
 cg2d: Sum(rhs),rhsMax =   4.51928877637112E+00  2.99862978289552E+02
(PID.TID 0000.0001)      cg2d_init_res =   1.02883970647064E-05
(PID.TID 0000.0001)      cg2d_iters(min,last) =      -1      84
(PID.TID 0000.0001)      cg2d_last_res =   8.55155593943236E-12
(PID.TID 0000.0001) // =======================================================
(PID.TID 0000.0001) // Begin MONITOR dynamic field statistics
(PID.TID 0000.0001) // =======================================================
(PID.TID 0000.0001) %MON time_tsnumber                =                   110
(PID.TID 0000.0001) %MON time_secondsf                =   1.1000000000000E+04
(PID.TID 0000.0001) %MON dynstat_eta_max              =   5.7976556816798E+00
(PID.TID 0000.0001) %MON dynstat_eta_min              =  -1.4195293417932E+01
(PID.TID 0000.0001) %MON dynstat_eta_mean             =  -2.5095692448763E+00
(PID.TID 0000.0001) %MON dynstat_eta_sd               =   4.9518705540023E+00
(PID.TID 0000.0001) %MON dynstat_eta_del2             =   2.0713999517971E-01
(PID.TID 0000.0001) %MON dynstat_uvel_max             =   2.0121104542170E-03
(PID.TID 0000.0001) %MON dynstat_uvel_min             =  -2.0370434185679E-03
(PID.TID 0000.0001) %MON dynstat_uvel_mean            =  -5.2412311489033E-07
(PID.TID 0000.0001) %MON dynstat_uvel_sd              =   6.9218020207607E-05
(PID.TID 0000.0001) %MON dynstat_uvel_del2            =   3.7499749842998E-07
(PID.TID 0000.0001) %MON dynstat_vvel_max             =   2.2665889189355E-03
(PID.TID 0000.0001) %MON dynstat_vvel_min             =  -2.0707358814942E-03
(PID.TID 0000.0001) %MON dynstat_vvel_mean            =  -5.2844313923471E-05
(PID.TID 0000.0001) %MON dynstat_vvel_sd              =   1.3493971339634E-04
(PID.TID 0000.0001) %MON dynstat_vvel_del2            =   6.5413629005346E-07
(PID.TID 0000.0001) %MON dynstat_wvel_max             =   3.9447003567976E-04
(PID.TID 0000.0001) %MON dynstat_wvel_min             =  -3.6359550791362E-04
(PID.TID 0000.0001) %MON dynstat_wvel_mean            =  -2.1839755474208E-08
(PID.TID 0000.0001) %MON dynstat_wvel_sd              =   5.2659905449286E-05
(PID.TID 0000.0001) %MON dynstat_wvel_del2            =   2.9166130846235E-07
(PID.TID 0000.0001) %MON dynstat_theta_max            =   1.2000000000000E+00
(PID.TID 0000.0001) %MON dynstat_theta_min            =  -1.0000000000000E+00
(PID.TID 0000.0001) %MON dynstat_theta_mean           =   5.6912959129512E-01
(PID.TID 0000.0001) %MON dynstat_theta_sd             =   8.6859752196457E-01
(PID.TID 0000.0001) %MON dynstat_theta_del2           =   2.6114055855826E-06
(PID.TID 0000.0001) %MON dynstat_salt_max             =   3.4700000000000E+01
(PID.TID 0000.0001) %MON dynstat_salt_min             =   3.4000000000000E+01
(PID.TID 0000.0001) %MON dynstat_salt_mean            =   3.4499265999667E+01
(PID.TID 0000.0001) %MON dynstat_salt_sd              =   2.7637131233577E-01
(PID.TID 0000.0001) %MON dynstat_salt_del2            =   8.2937823714729E-07
(PID.TID 0000.0001) %MON advcfl_uvel_max              =   2.0370434185679E-04
(PID.TID 0000.0001) %MON advcfl_vvel_max              =   2.2665889189355E-04
(PID.TID 0000.0001) %MON advcfl_wvel_max              =   1.9723501783988E-03
(PID.TID 0000.0001) %MON advcfl_W_hf_max              =   1.9723501783988E-03
(PID.TID 0000.0001) %MON pe_b_mean                    =  -8.3143085484212E-01
(PID.TID 0000.0001) %MON ke_max                       =   3.1556714359287E-06
(PID.TID 0000.0001) %MON ke_mean                      =   1.2838892214266E-08
(PID.TID 0000.0001) %MON ke_vol                       =   4.2725528261926E+12
(PID.TID 0000.0001) // =======================================================
(PID.TID 0000.0001) // End MONITOR dynamic field statistics
(PID.TID 0000.0001) // =======================================================
(PID.TID 0000.0001) // =======================================================
(PID.TID 0000.0001) // Begin OBCS MONITOR field statistics
(PID.TID 0000.0001) // =======================================================
(PID.TID 0000.0001) %MON obc_N_vVel_max               =  -4.8407887438461E-05
(PID.TID 0000.0001) %MON obc_N_vVel_min               =  -4.8407887438463E-05
(PID.TID 0000.0001) %MON obc_N_vVel_mean              =  -4.8407887438463E-05
(PID.TID 0000.0001) %MON obc_N_vVel_sd                =  -1.0298398626285E-22
(PID.TID 0000.0001) %MON obc_N_vVel_Int               =  -3.1949205709385E+03
(PID.TID 0000.0001) // =======================================================
(PID.TID 0000.0001) // End OBCS MONITOR field statistics
(PID.TID 0000.0001) // =======================================================
 cg2d: Sum(rhs),rhsMax =   4.51920005027300E+00  2.99863078838521E+02
(PID.TID 0000.0001)      cg2d_init_res =   1.01253007671542E-05
(PID.TID 0000.0001)      cg2d_iters(min,last) =      -1      84
(PID.TID 0000.0001)      cg2d_last_res =   7.31610829529612E-12
(PID.TID 0000.0001) // =======================================================
(PID.TID 0000.0001) // Begin MONITOR dynamic field statistics
(PID.TID 0000.0001) // =======================================================
(PID.TID 0000.0001) %MON time_tsnumber                =                   111
(PID.TID 0000.0001) %MON time_secondsf                =   1.1100000000000E+04
(PID.TID 0000.0001) %MON dynstat_eta_max              =   5.7977177080832E+00
(PID.TID 0000.0001) %MON dynstat_eta_min              =  -1.4195266454818E+01
(PID.TID 0000.0001) %MON dynstat_eta_mean             =  -2.5095208165964E+00
(PID.TID 0000.0001) %MON dynstat_eta_sd               =   4.9518617292863E+00
(PID.TID 0000.0001) %MON dynstat_eta_del2             =   2.0713999687053E-01
(PID.TID 0000.0001) %MON dynstat_uvel_max             =   2.0294434652683E-03
(PID.TID 0000.0001) %MON dynstat_uvel_min             =  -2.0553368402894E-03
(PID.TID 0000.0001) %MON dynstat_uvel_mean            =  -5.9152455797916E-07
(PID.TID 0000.0001) %MON dynstat_uvel_sd              =   6.9449133607869E-05
(PID.TID 0000.0001) %MON dynstat_uvel_del2            =   3.7642889936836E-07
(PID.TID 0000.0001) %MON dynstat_vvel_max             =   2.3036571428534E-03
(PID.TID 0000.0001) %MON dynstat_vvel_min             =  -2.0775596125135E-03
(PID.TID 0000.0001) %MON dynstat_vvel_mean            =  -4.3622293018118E-05
(PID.TID 0000.0001) %MON dynstat_vvel_sd              =   1.3496335060684E-04
(PID.TID 0000.0001) %MON dynstat_vvel_del2            =   6.5595213857322E-07
(PID.TID 0000.0001) %MON dynstat_wvel_max             =   4.0211389226193E-04
(PID.TID 0000.0001) %MON dynstat_wvel_min             =  -3.3866087593210E-04
(PID.TID 0000.0001) %MON dynstat_wvel_mean            =   1.7634167574004E-09
(PID.TID 0000.0001) %MON dynstat_wvel_sd              =   5.2770208746170E-05
(PID.TID 0000.0001) %MON dynstat_wvel_del2            =   2.9328848638922E-07
(PID.TID 0000.0001) %MON dynstat_theta_max            =   1.2000000000000E+00
(PID.TID 0000.0001) %MON dynstat_theta_min            =  -1.0000000000000E+00
(PID.TID 0000.0001) %MON dynstat_theta_mean           =   5.6912931137328E-01
(PID.TID 0000.0001) %MON dynstat_theta_sd             =   8.6859739535827E-01
(PID.TID 0000.0001) %MON dynstat_theta_del2           =   2.5948636672362E-06
(PID.TID 0000.0001) %MON dynstat_salt_max             =   3.4700000000000E+01
(PID.TID 0000.0001) %MON dynstat_salt_min             =   3.4000000000000E+01
(PID.TID 0000.0001) %MON dynstat_salt_mean            =   3.4499265889572E+01
(PID.TID 0000.0001) %MON dynstat_salt_sd              =   2.7637126636315E-01
(PID.TID 0000.0001) %MON dynstat_salt_del2            =   8.2408913571554E-07
(PID.TID 0000.0001) %MON advcfl_uvel_max              =   2.0553368402894E-04
(PID.TID 0000.0001) %MON advcfl_vvel_max              =   2.3036571428534E-04
(PID.TID 0000.0001) %MON advcfl_wvel_max              =   2.0105694613097E-03
(PID.TID 0000.0001) %MON advcfl_W_hf_max              =   2.0105694613097E-03
(PID.TID 0000.0001) %MON pe_b_mean                    =  -8.3142077130649E-01
(PID.TID 0000.0001) %MON ke_max                       =   3.2101922398196E-06
(PID.TID 0000.0001) %MON ke_mean                      =   1.2415417103094E-08
(PID.TID 0000.0001) %MON ke_vol                       =   4.2725531586854E+12
(PID.TID 0000.0001) // =======================================================
(PID.TID 0000.0001) // End MONITOR dynamic field statistics
(PID.TID 0000.0001) // =======================================================
(PID.TID 0000.0001) // =======================================================
(PID.TID 0000.0001) // Begin OBCS MONITOR field statistics
(PID.TID 0000.0001) // =======================================================
(PID.TID 0000.0001) %MON obc_N_vVel_max               =  -4.1615622059275E-05
(PID.TID 0000.0001) %MON obc_N_vVel_min               =  -4.1615622059276E-05
(PID.TID 0000.0001) %MON obc_N_vVel_mean              =  -4.1615622059275E-05
(PID.TID 0000.0001) %MON obc_N_vVel_sd                =   1.2403853995225E-11
(PID.TID 0000.0001) %MON obc_N_vVel_Int               =  -2.7466310559122E+03
(PID.TID 0000.0001) // =======================================================
(PID.TID 0000.0001) // End OBCS MONITOR field statistics
(PID.TID 0000.0001) // =======================================================
 cg2d: Sum(rhs),rhsMax =   4.51912711005583E+00  2.99863174163383E+02
(PID.TID 0000.0001)      cg2d_init_res =   9.97404565009521E-06
(PID.TID 0000.0001)      cg2d_iters(min,last) =      -1      83
(PID.TID 0000.0001)      cg2d_last_res =   9.32593465470824E-12
(PID.TID 0000.0001) // =======================================================
(PID.TID 0000.0001) // Begin MONITOR dynamic field statistics
(PID.TID 0000.0001) // =======================================================
(PID.TID 0000.0001) %MON time_tsnumber                =                   112
(PID.TID 0000.0001) %MON time_secondsf                =   1.1200000000000E+04
(PID.TID 0000.0001) %MON dynstat_eta_max              =   5.7977617574560E+00
(PID.TID 0000.0001) %MON dynstat_eta_min              =  -1.4195247003814E+01
(PID.TID 0000.0001) %MON dynstat_eta_mean             =  -2.5094811104984E+00
(PID.TID 0000.0001) %MON dynstat_eta_sd               =   4.9518565249963E+00
(PID.TID 0000.0001) %MON dynstat_eta_del2             =   2.0713999847487E-01
(PID.TID 0000.0001) %MON dynstat_uvel_max             =   2.0465277781518E-03
(PID.TID 0000.0001) %MON dynstat_uvel_min             =  -2.0734188136693E-03
(PID.TID 0000.0001) %MON dynstat_uvel_mean            =  -6.4354472254979E-07
(PID.TID 0000.0001) %MON dynstat_uvel_sd              =   6.9681409306191E-05
(PID.TID 0000.0001) %MON dynstat_uvel_del2            =   3.7781155416799E-07
(PID.TID 0000.0001) %MON dynstat_vvel_max             =   2.3415451458835E-03
(PID.TID 0000.0001) %MON dynstat_vvel_min             =  -2.0832062063807E-03
(PID.TID 0000.0001) %MON dynstat_vvel_mean            =  -3.3439224133171E-05
(PID.TID 0000.0001) %MON dynstat_vvel_sd              =   1.3496714241963E-04
(PID.TID 0000.0001) %MON dynstat_vvel_del2            =   6.5629646720841E-07
(PID.TID 0000.0001) %MON dynstat_wvel_max             =   4.0648770552024E-04
(PID.TID 0000.0001) %MON dynstat_wvel_min             =  -3.4049644673986E-04
(PID.TID 0000.0001) %MON dynstat_wvel_mean            =   2.3957413878783E-08
(PID.TID 0000.0001) %MON dynstat_wvel_sd              =   5.2803436859671E-05
(PID.TID 0000.0001) %MON dynstat_wvel_del2            =   2.9369702179896E-07
(PID.TID 0000.0001) %MON dynstat_theta_max            =   1.2000000000000E+00
(PID.TID 0000.0001) %MON dynstat_theta_min            =  -1.0000000000000E+00
(PID.TID 0000.0001) %MON dynstat_theta_mean           =   5.6912903521336E-01
(PID.TID 0000.0001) %MON dynstat_theta_sd             =   8.6859726676879E-01
(PID.TID 0000.0001) %MON dynstat_theta_del2           =   2.5792855268549E-06
(PID.TID 0000.0001) %MON dynstat_salt_max             =   3.4700000000000E+01
(PID.TID 0000.0001) %MON dynstat_salt_min             =   3.4000000000000E+01
(PID.TID 0000.0001) %MON dynstat_salt_mean            =   3.4499265780675E+01
(PID.TID 0000.0001) %MON dynstat_salt_sd              =   2.7637121976211E-01
(PID.TID 0000.0001) %MON dynstat_salt_del2            =   8.1911020212875E-07
(PID.TID 0000.0001) %MON advcfl_uvel_max              =   2.0734188136693E-04
(PID.TID 0000.0001) %MON advcfl_vvel_max              =   2.3415451458835E-04
(PID.TID 0000.0001) %MON advcfl_wvel_max              =   2.0324385276012E-03
(PID.TID 0000.0001) %MON advcfl_W_hf_max              =   2.0324385276012E-03
(PID.TID 0000.0001) %MON pe_b_mean                    =  -8.3141328933915E-01
(PID.TID 0000.0001) %MON ke_max                       =   3.2646096592702E-06
(PID.TID 0000.0001) %MON ke_mean                      =   1.2041756877556E-08
(PID.TID 0000.0001) %MON ke_vol                       =   4.2725534463494E+12
(PID.TID 0000.0001) // =======================================================
(PID.TID 0000.0001) // End MONITOR dynamic field statistics
(PID.TID 0000.0001) // =======================================================
(PID.TID 0000.0001) // =======================================================
(PID.TID 0000.0001) // Begin OBCS MONITOR field statistics
(PID.TID 0000.0001) // =======================================================
(PID.TID 0000.0001) %MON obc_N_vVel_max               =  -3.3765630421504E-05
(PID.TID 0000.0001) %MON obc_N_vVel_min               =  -3.3765630421504E-05
(PID.TID 0000.0001) %MON obc_N_vVel_mean              =  -3.3765630421504E-05
(PID.TID 0000.0001) %MON obc_N_vVel_sd                =   6.2019269976126E-12
(PID.TID 0000.0001) %MON obc_N_vVel_Int               =  -2.2285316078193E+03
(PID.TID 0000.0001) // =======================================================
(PID.TID 0000.0001) // End OBCS MONITOR field statistics
(PID.TID 0000.0001) // =======================================================
 cg2d: Sum(rhs),rhsMax =   4.51907151884967E+00  2.99863263942549E+02
(PID.TID 0000.0001)      cg2d_init_res =   9.80960019100422E-06
(PID.TID 0000.0001)      cg2d_iters(min,last) =      -1      83
(PID.TID 0000.0001)      cg2d_last_res =   8.07689188077894E-12
(PID.TID 0000.0001) // =======================================================
(PID.TID 0000.0001) // Begin MONITOR dynamic field statistics
(PID.TID 0000.0001) // =======================================================
(PID.TID 0000.0001) %MON time_tsnumber                =                   113
(PID.TID 0000.0001) %MON time_secondsf                =   1.1300000000000E+04
(PID.TID 0000.0001) %MON dynstat_eta_max              =   5.7977901118686E+00
(PID.TID 0000.0001) %MON dynstat_eta_min              =  -1.4195235871742E+01
(PID.TID 0000.0001) %MON dynstat_eta_mean             =  -2.5094509919112E+00
(PID.TID 0000.0001) %MON dynstat_eta_sd               =   4.9518549673090E+00
(PID.TID 0000.0001) %MON dynstat_eta_del2             =   2.0714000003331E-01
(PID.TID 0000.0001) %MON dynstat_uvel_max             =   2.0633605873819E-03
(PID.TID 0000.0001) %MON dynstat_uvel_min             =  -2.0912849415602E-03
(PID.TID 0000.0001) %MON dynstat_uvel_mean            =  -6.7896572301567E-07
(PID.TID 0000.0001) %MON dynstat_uvel_sd              =   6.9916048257730E-05
(PID.TID 0000.0001) %MON dynstat_uvel_del2            =   3.7914629803795E-07
(PID.TID 0000.0001) %MON dynstat_vvel_max             =   2.3798205210319E-03
(PID.TID 0000.0001) %MON dynstat_vvel_min             =  -2.0881126668559E-03
(PID.TID 0000.0001) %MON dynstat_vvel_mean            =  -2.2627987526896E-05
(PID.TID 0000.0001) %MON dynstat_vvel_sd              =   1.3494284114287E-04
(PID.TID 0000.0001) %MON dynstat_vvel_del2            =   6.5517735901259E-07
(PID.TID 0000.0001) %MON dynstat_wvel_max             =   4.1047577155908E-04
(PID.TID 0000.0001) %MON dynstat_wvel_min             =  -3.4553084560458E-04
(PID.TID 0000.0001) %MON dynstat_wvel_mean            =   4.4273377002396E-08
(PID.TID 0000.0001) %MON dynstat_wvel_sd              =   5.2743246569699E-05
(PID.TID 0000.0001) %MON dynstat_wvel_del2            =   2.9278631077208E-07
(PID.TID 0000.0001) %MON dynstat_theta_max            =   1.2000000000000E+00
(PID.TID 0000.0001) %MON dynstat_theta_min            =  -1.0000000000000E+00
(PID.TID 0000.0001) %MON dynstat_theta_mean           =   5.6912876311935E-01
(PID.TID 0000.0001) %MON dynstat_theta_sd             =   8.6859713628327E-01
(PID.TID 0000.0001) %MON dynstat_theta_del2           =   2.5647383536827E-06
(PID.TID 0000.0001) %MON dynstat_salt_max             =   3.4700000000000E+01
(PID.TID 0000.0001) %MON dynstat_salt_min             =   3.4000000000000E+01
(PID.TID 0000.0001) %MON dynstat_salt_mean            =   3.4499265673070E+01
(PID.TID 0000.0001) %MON dynstat_salt_sd              =   2.7637117256044E-01
(PID.TID 0000.0001) %MON dynstat_salt_del2            =   8.1446279981480E-07
(PID.TID 0000.0001) %MON advcfl_uvel_max              =   2.0912849415602E-04
(PID.TID 0000.0001) %MON advcfl_vvel_max              =   2.3798205210319E-04
(PID.TID 0000.0001) %MON advcfl_wvel_max              =   2.0523788577954E-03
(PID.TID 0000.0001) %MON advcfl_W_hf_max              =   2.0523788577954E-03
(PID.TID 0000.0001) %MON pe_b_mean                    =  -8.3140854834396E-01
(PID.TID 0000.0001) %MON ke_max                       =   3.3188393708176E-06
(PID.TID 0000.0001) %MON ke_mean                      =   1.1753465110971E-08
(PID.TID 0000.0001) %MON ke_vol                       =   4.2725536822036E+12
(PID.TID 0000.0001) // =======================================================
(PID.TID 0000.0001) // End MONITOR dynamic field statistics
(PID.TID 0000.0001) // =======================================================
(PID.TID 0000.0001) // =======================================================
(PID.TID 0000.0001) // Begin OBCS MONITOR field statistics
(PID.TID 0000.0001) // =======================================================
(PID.TID 0000.0001) %MON obc_N_vVel_max               =  -2.5136843381826E-05
(PID.TID 0000.0001) %MON obc_N_vVel_min               =  -2.5136843381826E-05
(PID.TID 0000.0001) %MON obc_N_vVel_mean              =  -2.5136843381826E-05
(PID.TID 0000.0001) %MON obc_N_vVel_sd                =  -6.2038545941477E-25
(PID.TID 0000.0001) %MON obc_N_vVel_Int               =  -1.6590316632005E+03
(PID.TID 0000.0001) // =======================================================
(PID.TID 0000.0001) // End OBCS MONITOR field statistics
(PID.TID 0000.0001) // =======================================================
 cg2d: Sum(rhs),rhsMax =   4.51903427872505E+00  2.99863348016089E+02
(PID.TID 0000.0001)      cg2d_init_res =   9.63342659989255E-06
(PID.TID 0000.0001)      cg2d_iters(min,last) =      -1      81
(PID.TID 0000.0001)      cg2d_last_res =   9.51763260856826E-12
(PID.TID 0000.0001) // =======================================================
(PID.TID 0000.0001) // Begin MONITOR dynamic field statistics
(PID.TID 0000.0001) // =======================================================
(PID.TID 0000.0001) %MON time_tsnumber                =                   114
(PID.TID 0000.0001) %MON time_secondsf                =   1.1400000000000E+04
(PID.TID 0000.0001) %MON dynstat_eta_max              =   5.7978025790173E+00
(PID.TID 0000.0001) %MON dynstat_eta_min              =  -1.4195233686010E+01
(PID.TID 0000.0001) %MON dynstat_eta_mean             =  -2.5094310159592E+00
(PID.TID 0000.0001) %MON dynstat_eta_sd               =   4.9518569851897E+00
(PID.TID 0000.0001) %MON dynstat_eta_del2             =   2.0714000155185E-01
(PID.TID 0000.0001) %MON dynstat_uvel_max             =   2.0799613987990E-03
(PID.TID 0000.0001) %MON dynstat_uvel_min             =  -2.1089311869780E-03
(PID.TID 0000.0001) %MON dynstat_uvel_mean            =  -6.9765028020450E-07
(PID.TID 0000.0001) %MON dynstat_uvel_sd              =   7.0153906987181E-05
(PID.TID 0000.0001) %MON dynstat_uvel_del2            =   3.8043392264793E-07
(PID.TID 0000.0001) %MON dynstat_vvel_max             =   2.4180763855952E-03
(PID.TID 0000.0001) %MON dynstat_vvel_min             =  -2.0926880328336E-03
(PID.TID 0000.0001) %MON dynstat_vvel_mean            =  -1.1516530404719E-05
(PID.TID 0000.0001) %MON dynstat_vvel_sd              =   1.3488786470601E-04
(PID.TID 0000.0001) %MON dynstat_vvel_del2            =   6.5277909706268E-07
(PID.TID 0000.0001) %MON dynstat_wvel_max             =   4.0631258023795E-04
(PID.TID 0000.0001) %MON dynstat_wvel_min             =  -3.4595243590041E-04
(PID.TID 0000.0001) %MON dynstat_wvel_mean            =   6.2304526390765E-08
(PID.TID 0000.0001) %MON dynstat_wvel_sd              =   5.2586050520486E-05
(PID.TID 0000.0001) %MON dynstat_wvel_del2            =   2.9061811944729E-07
(PID.TID 0000.0001) %MON dynstat_theta_max            =   1.2000000000000E+00
(PID.TID 0000.0001) %MON dynstat_theta_min            =  -1.0000000000000E+00
(PID.TID 0000.0001) %MON dynstat_theta_mean           =   5.6912849526014E-01
(PID.TID 0000.0001) %MON dynstat_theta_sd             =   8.6859700380548E-01
(PID.TID 0000.0001) %MON dynstat_theta_del2           =   2.5511577560070E-06
(PID.TID 0000.0001) %MON dynstat_salt_max             =   3.4700000000000E+01
(PID.TID 0000.0001) %MON dynstat_salt_min             =   3.4000000000000E+01
(PID.TID 0000.0001) %MON dynstat_salt_mean            =   3.4499265566813E+01
(PID.TID 0000.0001) %MON dynstat_salt_sd              =   2.7637112472795E-01
(PID.TID 0000.0001) %MON dynstat_salt_del2            =   8.1012626298514E-07
(PID.TID 0000.0001) %MON advcfl_uvel_max              =   2.1089311869780E-04
(PID.TID 0000.0001) %MON advcfl_vvel_max              =   2.4180763855952E-04
(PID.TID 0000.0001) %MON advcfl_wvel_max              =   2.0315629011898E-03
(PID.TID 0000.0001) %MON advcfl_W_hf_max              =   2.0315629011898E-03
(PID.TID 0000.0001) %MON pe_b_mean                    =  -8.3140660631762E-01
(PID.TID 0000.0001) %MON ke_max                       =   3.3727944604483E-06
(PID.TID 0000.0001) %MON ke_mean                      =   1.1574159093024E-08
(PID.TID 0000.0001) %MON ke_vol                       =   4.2725538611080E+12
(PID.TID 0000.0001) // =======================================================
(PID.TID 0000.0001) // End MONITOR dynamic field statistics
(PID.TID 0000.0001) // =======================================================
(PID.TID 0000.0001) // =======================================================
(PID.TID 0000.0001) // Begin OBCS MONITOR field statistics
(PID.TID 0000.0001) // =======================================================
(PID.TID 0000.0001) %MON obc_N_vVel_max               =  -1.6008442810355E-05
(PID.TID 0000.0001) %MON obc_N_vVel_min               =  -1.6008442810355E-05
(PID.TID 0000.0001) %MON obc_N_vVel_mean              =  -1.6008442810355E-05
(PID.TID 0000.0001) %MON obc_N_vVel_sd                =   4.0033266626913E-12
(PID.TID 0000.0001) %MON obc_N_vVel_Int               =  -1.0565572254834E+03
(PID.TID 0000.0001) // =======================================================
(PID.TID 0000.0001) // End OBCS MONITOR field statistics
(PID.TID 0000.0001) // =======================================================
 cg2d: Sum(rhs),rhsMax =   4.51901584304514E+00  2.99863426385833E+02
(PID.TID 0000.0001)      cg2d_init_res =   9.45045052001826E-06
(PID.TID 0000.0001)      cg2d_iters(min,last) =      -1      78
(PID.TID 0000.0001)      cg2d_last_res =   9.87911314793373E-12
(PID.TID 0000.0001) // =======================================================
(PID.TID 0000.0001) // Begin MONITOR dynamic field statistics
(PID.TID 0000.0001) // =======================================================
(PID.TID 0000.0001) %MON time_tsnumber                =                   115
(PID.TID 0000.0001) %MON time_secondsf                =   1.1500000000000E+04
(PID.TID 0000.0001) %MON dynstat_eta_max              =   5.7977992183249E+00
(PID.TID 0000.0001) %MON dynstat_eta_min              =  -1.4195240840649E+01
(PID.TID 0000.0001) %MON dynstat_eta_mean             =  -2.5094214344211E+00
(PID.TID 0000.0001) %MON dynstat_eta_sd               =   4.9518624181170E+00
(PID.TID 0000.0001) %MON dynstat_eta_del2             =   2.0714000303785E-01
(PID.TID 0000.0001) %MON dynstat_uvel_max             =   2.0963402401470E-03
(PID.TID 0000.0001) %MON dynstat_uvel_min             =  -2.1263541554255E-03
(PID.TID 0000.0001) %MON dynstat_uvel_mean            =  -7.0014999839154E-07
(PID.TID 0000.0001) %MON dynstat_uvel_sd              =   7.0395409868505E-05
(PID.TID 0000.0001) %MON dynstat_uvel_del2            =   3.8167517588766E-07
(PID.TID 0000.0001) %MON dynstat_vvel_max             =   2.4559231644119E-03
(PID.TID 0000.0001) %MON dynstat_vvel_min             =  -2.0973181706507E-03
(PID.TID 0000.0001) %MON dynstat_vvel_mean            =  -4.1915822285143E-07
(PID.TID 0000.0001) %MON dynstat_vvel_sd              =   1.3480565619991E-04
(PID.TID 0000.0001) %MON dynstat_vvel_del2            =   6.4943526386641E-07
(PID.TID 0000.0001) %MON dynstat_wvel_max             =   3.9405824210166E-04
(PID.TID 0000.0001) %MON dynstat_wvel_min             =  -3.4157871332786E-04
(PID.TID 0000.0001) %MON dynstat_wvel_mean            =   7.7710596681725E-08
(PID.TID 0000.0001) %MON dynstat_wvel_sd              =   5.2340748963182E-05
(PID.TID 0000.0001) %MON dynstat_wvel_del2            =   2.8740277295223E-07
(PID.TID 0000.0001) %MON dynstat_theta_max            =   1.2000000000000E+00
(PID.TID 0000.0001) %MON dynstat_theta_min            =  -1.0000000000000E+00
(PID.TID 0000.0001) %MON dynstat_theta_mean           =   5.6912823167510E-01
(PID.TID 0000.0001) %MON dynstat_theta_sd             =   8.6859686945761E-01
(PID.TID 0000.0001) %MON dynstat_theta_del2           =   2.5383631123363E-06
(PID.TID 0000.0001) %MON dynstat_salt_max             =   3.4700000000000E+01
(PID.TID 0000.0001) %MON dynstat_salt_min             =   3.4000000000000E+01
(PID.TID 0000.0001) %MON dynstat_salt_mean            =   3.4499265461915E+01
(PID.TID 0000.0001) %MON dynstat_salt_sd              =   2.7637107630364E-01
(PID.TID 0000.0001) %MON dynstat_salt_del2            =   8.0604283847881E-07
(PID.TID 0000.0001) %MON advcfl_uvel_max              =   2.1263541554255E-04
(PID.TID 0000.0001) %MON advcfl_vvel_max              =   2.4559231644119E-04
(PID.TID 0000.0001) %MON advcfl_wvel_max              =   1.9702912105083E-03
(PID.TID 0000.0001) %MON advcfl_W_hf_max              =   1.9702912105083E-03
(PID.TID 0000.0001) %MON pe_b_mean                    =  -8.3140744332145E-01
(PID.TID 0000.0001) %MON ke_max                       =   3.4263869666942E-06
(PID.TID 0000.0001) %MON ke_mean                      =   1.1514308684321E-08
(PID.TID 0000.0001) %MON ke_vol                       =   4.2725539797652E+12
(PID.TID 0000.0001) // =======================================================
(PID.TID 0000.0001) // End MONITOR dynamic field statistics
(PID.TID 0000.0001) // =======================================================
(PID.TID 0000.0001) // =======================================================
(PID.TID 0000.0001) // Begin OBCS MONITOR field statistics
(PID.TID 0000.0001) // =======================================================
(PID.TID 0000.0001) %MON obc_N_vVel_max               =  -6.6534346536277E-06
(PID.TID 0000.0001) %MON obc_N_vVel_min               =  -6.6534346536279E-06
(PID.TID 0000.0001) %MON obc_N_vVel_mean              =  -6.6534346536277E-06
(PID.TID 0000.0001) %MON obc_N_vVel_sd                =   1.5210262245386E-12
(PID.TID 0000.0001) %MON obc_N_vVel_Int               =  -4.3912668713943E+02
(PID.TID 0000.0001) // =======================================================
(PID.TID 0000.0001) // End OBCS MONITOR field statistics
(PID.TID 0000.0001) // =======================================================
 cg2d: Sum(rhs),rhsMax =   4.51901613879400E+00  2.99863499209587E+02
(PID.TID 0000.0001)      cg2d_init_res =   9.26857047139188E-06
(PID.TID 0000.0001)      cg2d_iters(min,last) =      -1      80
(PID.TID 0000.0001)      cg2d_last_res =   9.51397382378830E-12
(PID.TID 0000.0001) // =======================================================
(PID.TID 0000.0001) // Begin MONITOR dynamic field statistics
(PID.TID 0000.0001) // =======================================================
(PID.TID 0000.0001) %MON time_tsnumber                =                   116
(PID.TID 0000.0001) %MON time_secondsf                =   1.1600000000000E+04
(PID.TID 0000.0001) %MON dynstat_eta_max              =   5.7977804930825E+00
(PID.TID 0000.0001) %MON dynstat_eta_min              =  -1.4195257445581E+01
(PID.TID 0000.0001) %MON dynstat_eta_mean             =  -2.5094222080803E+00
(PID.TID 0000.0001) %MON dynstat_eta_sd               =   4.9518710252043E+00
(PID.TID 0000.0001) %MON dynstat_eta_del2             =   2.0714000449795E-01
(PID.TID 0000.0001) %MON dynstat_uvel_max             =   2.1124982367660E-03
(PID.TID 0000.0001) %MON dynstat_uvel_min             =  -2.1435512724715E-03
(PID.TID 0000.0001) %MON dynstat_uvel_mean            =  -6.8731437121466E-07
(PID.TID 0000.0001) %MON dynstat_uvel_sd              =   7.0640566932381E-05
(PID.TID 0000.0001) %MON dynstat_uvel_del2            =   3.8287076396424E-07
(PID.TID 0000.0001) %MON dynstat_vvel_max             =   2.4929979859820E-03
(PID.TID 0000.0001) %MON dynstat_vvel_min             =  -2.1023618122786E-03
(PID.TID 0000.0001) %MON dynstat_vvel_mean            =   1.0370774285063E-05
(PID.TID 0000.0001) %MON dynstat_vvel_sd              =   1.3470507069978E-04
(PID.TID 0000.0001) %MON dynstat_vvel_del2            =   6.4558642835557E-07
(PID.TID 0000.0001) %MON dynstat_wvel_max             =   3.7394829810203E-04
(PID.TID 0000.0001) %MON dynstat_wvel_min             =  -3.3230475108002E-04
(PID.TID 0000.0001) %MON dynstat_wvel_mean            =   9.0238873323971E-08
(PID.TID 0000.0001) %MON dynstat_wvel_sd              =   5.2027093018274E-05
(PID.TID 0000.0001) %MON dynstat_wvel_del2            =   2.8347330237097E-07
(PID.TID 0000.0001) %MON dynstat_theta_max            =   1.2000000000000E+00
(PID.TID 0000.0001) %MON dynstat_theta_min            =  -1.0000000000000E+00
(PID.TID 0000.0001) %MON dynstat_theta_mean           =   5.6912797228591E-01
(PID.TID 0000.0001) %MON dynstat_theta_sd             =   8.6859673342864E-01
(PID.TID 0000.0001) %MON dynstat_theta_del2           =   2.5260874473453E-06
(PID.TID 0000.0001) %MON dynstat_salt_max             =   3.4700000000000E+01
(PID.TID 0000.0001) %MON dynstat_salt_min             =   3.4000000000000E+01
(PID.TID 0000.0001) %MON dynstat_salt_mean            =   3.4499265358351E+01
(PID.TID 0000.0001) %MON dynstat_salt_sd              =   2.7637102734792E-01
(PID.TID 0000.0001) %MON dynstat_salt_del2            =   8.0212720284958E-07
(PID.TID 0000.0001) %MON advcfl_uvel_max              =   2.1435512724715E-04
(PID.TID 0000.0001) %MON advcfl_vvel_max              =   2.4929979859820E-04
(PID.TID 0000.0001) %MON advcfl_wvel_max              =   1.8697414905102E-03
(PID.TID 0000.0001) %MON advcfl_W_hf_max              =   1.8697414905102E-03
(PID.TID 0000.0001) %MON pe_b_mean                    =  -8.3141096680163E-01
(PID.TID 0000.0001) %MON ke_max                       =   3.4795296743784E-06
(PID.TID 0000.0001) %MON ke_mean                      =   1.1571519602960E-08
(PID.TID 0000.0001) %MON ke_vol                       =   4.2725540366795E+12
(PID.TID 0000.0001) // =======================================================
(PID.TID 0000.0001) // End MONITOR dynamic field statistics
(PID.TID 0000.0001) // =======================================================
(PID.TID 0000.0001) // =======================================================
(PID.TID 0000.0001) // Begin OBCS MONITOR field statistics
(PID.TID 0000.0001) // =======================================================
(PID.TID 0000.0001) %MON obc_N_vVel_max               =   2.6662941559373E-06
(PID.TID 0000.0001) %MON obc_N_vVel_min               =   2.6662941559373E-06
(PID.TID 0000.0001) %MON obc_N_vVel_mean              =   2.6662941559373E-06
(PID.TID 0000.0001) %MON obc_N_vVel_sd                =  -4.2813059048155E-26
(PID.TID 0000.0001) %MON obc_N_vVel_Int               =   1.7597541429186E+02
(PID.TID 0000.0001) // =======================================================
(PID.TID 0000.0001) // End OBCS MONITOR field statistics
(PID.TID 0000.0001) // =======================================================
 cg2d: Sum(rhs),rhsMax =   4.51903460060728E+00  2.99863566784848E+02
(PID.TID 0000.0001)      cg2d_init_res =   9.09760485246834E-06
(PID.TID 0000.0001)      cg2d_iters(min,last) =      -1      82
(PID.TID 0000.0001)      cg2d_last_res =   8.42115871541172E-12
(PID.TID 0000.0001) // =======================================================
(PID.TID 0000.0001) // Begin MONITOR dynamic field statistics
(PID.TID 0000.0001) // =======================================================
(PID.TID 0000.0001) %MON time_tsnumber                =                   117
(PID.TID 0000.0001) %MON time_secondsf                =   1.1700000000000E+04
(PID.TID 0000.0001) %MON dynstat_eta_max              =   5.7977472283239E+00
(PID.TID 0000.0001) %MON dynstat_eta_min              =  -1.4195283329764E+01
(PID.TID 0000.0001) %MON dynstat_eta_mean             =  -2.5094330254856E+00
(PID.TID 0000.0001) %MON dynstat_eta_sd               =   4.9518824967124E+00
(PID.TID 0000.0001) %MON dynstat_eta_del2             =   2.0714000594030E-01
(PID.TID 0000.0001) %MON dynstat_uvel_max             =   2.1284333476288E-03
(PID.TID 0000.0001) %MON dynstat_uvel_min             =  -2.1605206736588E-03
(PID.TID 0000.0001) %MON dynstat_uvel_mean            =  -6.6017870818746E-07
(PID.TID 0000.0001) %MON dynstat_uvel_sd              =   7.0889057958067E-05
(PID.TID 0000.0001) %MON dynstat_uvel_del2            =   3.8402135564378E-07
(PID.TID 0000.0001) %MON dynstat_vvel_max             =   2.5289756402795E-03
(PID.TID 0000.0001) %MON dynstat_vvel_min             =  -2.1081408855661E-03
(PID.TID 0000.0001) %MON dynstat_vvel_mean            =   2.0586972123527E-05
(PID.TID 0000.0001) %MON dynstat_vvel_sd              =   1.3459893641717E-04
(PID.TID 0000.0001) %MON dynstat_vvel_del2            =   6.4172556548279E-07
(PID.TID 0000.0001) %MON dynstat_wvel_max             =   3.4639073976419E-04
(PID.TID 0000.0001) %MON dynstat_wvel_min             =  -3.2647580641464E-04
(PID.TID 0000.0001) %MON dynstat_wvel_mean            =   9.9736020289238E-08
(PID.TID 0000.0001) %MON dynstat_wvel_sd              =   5.1672882679710E-05
(PID.TID 0000.0001) %MON dynstat_wvel_del2            =   2.7924769866487E-07
(PID.TID 0000.0001) %MON dynstat_theta_max            =   1.2000000000000E+00
(PID.TID 0000.0001) %MON dynstat_theta_min            =  -1.0000000000000E+00
(PID.TID 0000.0001) %MON dynstat_theta_mean           =   5.6912771691008E-01
(PID.TID 0000.0001) %MON dynstat_theta_sd             =   8.6859659592069E-01
(PID.TID 0000.0001) %MON dynstat_theta_del2           =   2.5140183003024E-06
(PID.TID 0000.0001) %MON dynstat_salt_max             =   3.4700000000000E+01
(PID.TID 0000.0001) %MON dynstat_salt_min             =   3.4000000000000E+01
(PID.TID 0000.0001) %MON dynstat_salt_mean            =   3.4499265256064E+01
(PID.TID 0000.0001) %MON dynstat_salt_sd              =   2.7637097792477E-01
(PID.TID 0000.0001) %MON dynstat_salt_del2            =   7.9827943586637E-07
(PID.TID 0000.0001) %MON advcfl_uvel_max              =   2.1605206736588E-04
(PID.TID 0000.0001) %MON advcfl_vvel_max              =   2.5289756402795E-04
(PID.TID 0000.0001) %MON advcfl_wvel_max              =   1.7319536988209E-03
(PID.TID 0000.0001) %MON advcfl_W_hf_max              =   1.7319536988209E-03
(PID.TID 0000.0001) %MON pe_b_mean                    =  -8.3141701869362E-01
(PID.TID 0000.0001) %MON ke_max                       =   3.5321386257052E-06
(PID.TID 0000.0001) %MON ke_mean                      =   1.1732067394368E-08
(PID.TID 0000.0001) %MON ke_vol                       =   4.2725540320840E+12
(PID.TID 0000.0001) // =======================================================
(PID.TID 0000.0001) // End MONITOR dynamic field statistics
(PID.TID 0000.0001) // =======================================================
(PID.TID 0000.0001) // =======================================================
(PID.TID 0000.0001) // Begin OBCS MONITOR field statistics
(PID.TID 0000.0001) // =======================================================
(PID.TID 0000.0001) %MON obc_N_vVel_max               =   1.1705728944659E-05
(PID.TID 0000.0001) %MON obc_N_vVel_min               =   1.1705728944659E-05
(PID.TID 0000.0001) %MON obc_N_vVel_mean              =   1.1705728944659E-05
(PID.TID 0000.0001) %MON obc_N_vVel_sd                =  -3.4896682092081E-24
(PID.TID 0000.0001) %MON obc_N_vVel_Int               =   7.7257811034749E+02
(PID.TID 0000.0001) // =======================================================
(PID.TID 0000.0001) // End OBCS MONITOR field statistics
(PID.TID 0000.0001) // =======================================================
 cg2d: Sum(rhs),rhsMax =   4.51907021688949E+00  2.99863629530676E+02
(PID.TID 0000.0001)      cg2d_init_res =   8.94883025683125E-06
(PID.TID 0000.0001)      cg2d_iters(min,last) =      -1      83
(PID.TID 0000.0001)      cg2d_last_res =   8.61165239542193E-12
(PID.TID 0000.0001) // =======================================================
(PID.TID 0000.0001) // Begin MONITOR dynamic field statistics
(PID.TID 0000.0001) // =======================================================
(PID.TID 0000.0001) %MON time_tsnumber                =                   118
(PID.TID 0000.0001) %MON time_secondsf                =   1.1800000000000E+04
(PID.TID 0000.0001) %MON dynstat_eta_max              =   5.7977005789079E+00
(PID.TID 0000.0001) %MON dynstat_eta_min              =  -1.4195318081243E+01
(PID.TID 0000.0001) %MON dynstat_eta_mean             =  -2.5094533284083E+00
(PID.TID 0000.0001) %MON dynstat_eta_sd               =   4.9518964667848E+00
(PID.TID 0000.0001) %MON dynstat_eta_del2             =   2.0714000737572E-01
(PID.TID 0000.0001) %MON dynstat_uvel_max             =   2.1441432441698E-03
(PID.TID 0000.0001) %MON dynstat_uvel_min             =  -2.1772611799662E-03
(PID.TID 0000.0001) %MON dynstat_uvel_mean            =  -6.2000842959073E-07
(PID.TID 0000.0001) %MON dynstat_uvel_sd              =   7.1140324487264E-05
(PID.TID 0000.0001) %MON dynstat_uvel_del2            =   3.8512759313111E-07
(PID.TID 0000.0001) %MON dynstat_vvel_max             =   2.5635757960014E-03
(PID.TID 0000.0001) %MON dynstat_vvel_min             =  -2.1149334387234E-03
(PID.TID 0000.0001) %MON dynstat_vvel_mean            =   2.9995375253900E-05
(PID.TID 0000.0001) %MON dynstat_vvel_sd              =   1.3450202259514E-04
(PID.TID 0000.0001) %MON dynstat_vvel_del2            =   6.3833609127354E-07
(PID.TID 0000.0001) %MON dynstat_wvel_max             =   3.1195894939725E-04
(PID.TID 0000.0001) %MON dynstat_wvel_min             =  -3.4610654007927E-04
(PID.TID 0000.0001) %MON dynstat_wvel_mean            =   1.0614448952485E-07
(PID.TID 0000.0001) %MON dynstat_wvel_sd              =   5.1310258624755E-05
(PID.TID 0000.0001) %MON dynstat_wvel_del2            =   2.7517964633591E-07
(PID.TID 0000.0001) %MON dynstat_theta_max            =   1.2000000000000E+00
(PID.TID 0000.0001) %MON dynstat_theta_min            =  -1.0000000000000E+00
(PID.TID 0000.0001) %MON dynstat_theta_mean           =   5.6912746527294E-01
(PID.TID 0000.0001) %MON dynstat_theta_sd             =   8.6859645701357E-01
(PID.TID 0000.0001) %MON dynstat_theta_del2           =   2.5018410265409E-06
(PID.TID 0000.0001) %MON dynstat_salt_max             =   3.4700000000000E+01
(PID.TID 0000.0001) %MON dynstat_salt_min             =   3.4000000000000E+01
(PID.TID 0000.0001) %MON dynstat_salt_mean            =   3.4499265154966E+01
(PID.TID 0000.0001) %MON dynstat_salt_sd              =   2.7637092805993E-01
(PID.TID 0000.0001) %MON dynstat_salt_del2            =   7.9439895249229E-07
(PID.TID 0000.0001) %MON advcfl_uvel_max              =   2.1772611799662E-04
(PID.TID 0000.0001) %MON advcfl_vvel_max              =   2.5635757960014E-04
(PID.TID 0000.0001) %MON advcfl_wvel_max              =   1.7305327003964E-03
(PID.TID 0000.0001) %MON advcfl_W_hf_max              =   1.7305327003964E-03
(PID.TID 0000.0001) %MON pe_b_mean                    =  -8.3142538392121E-01
(PID.TID 0000.0001) %MON ke_max                       =   3.5841359221847E-06
(PID.TID 0000.0001) %MON ke_mean                      =   1.1973368959721E-08
(PID.TID 0000.0001) %MON ke_vol                       =   4.2725539678286E+12
(PID.TID 0000.0001) // =======================================================
(PID.TID 0000.0001) // End MONITOR dynamic field statistics
(PID.TID 0000.0001) // =======================================================
(PID.TID 0000.0001) // =======================================================
(PID.TID 0000.0001) // Begin OBCS MONITOR field statistics
(PID.TID 0000.0001) // =======================================================
(PID.TID 0000.0001) %MON obc_N_vVel_max               =   2.0242758381913E-05
(PID.TID 0000.0001) %MON obc_N_vVel_min               =   2.0242758381912E-05
(PID.TID 0000.0001) %MON obc_N_vVel_mean              =   2.0242758381913E-05
(PID.TID 0000.0001) %MON obc_N_vVel_sd                =   2.1927123182179E-12
(PID.TID 0000.0001) %MON obc_N_vVel_Int               =   1.3360220532062E+03
(PID.TID 0000.0001) // =======================================================
(PID.TID 0000.0001) // End OBCS MONITOR field statistics
(PID.TID 0000.0001) // =======================================================
 cg2d: Sum(rhs),rhsMax =   4.51912158573326E+00  2.99863687963333E+02
(PID.TID 0000.0001)      cg2d_init_res =   8.83319037209032E-06
(PID.TID 0000.0001)      cg2d_iters(min,last) =      -1      83
(PID.TID 0000.0001)      cg2d_last_res =   9.75524304311042E-12
(PID.TID 0000.0001) // =======================================================
(PID.TID 0000.0001) // Begin MONITOR dynamic field statistics
(PID.TID 0000.0001) // =======================================================
(PID.TID 0000.0001) %MON time_tsnumber                =                   119
(PID.TID 0000.0001) %MON time_secondsf                =   1.1900000000000E+04
(PID.TID 0000.0001) %MON dynstat_eta_max              =   5.7976419712298E+00
(PID.TID 0000.0001) %MON dynstat_eta_min              =  -1.4195361082140E+01
(PID.TID 0000.0001) %MON dynstat_eta_mean             =  -2.5094823426902E+00
(PID.TID 0000.0001) %MON dynstat_eta_sd               =   4.9519125268579E+00
(PID.TID 0000.0001) %MON dynstat_eta_del2             =   2.0714000881236E-01
(PID.TID 0000.0001) %MON dynstat_uvel_max             =   2.1596259102701E-03
(PID.TID 0000.0001) %MON dynstat_uvel_min             =  -2.1937722357066E-03
(PID.TID 0000.0001) %MON dynstat_uvel_mean            =  -5.6836392918926E-07
(PID.TID 0000.0001) %MON dynstat_uvel_sd              =   7.1393653720229E-05
(PID.TID 0000.0001) %MON dynstat_uvel_del2            =   3.8619009976207E-07
(PID.TID 0000.0001) %MON dynstat_vvel_max             =   2.5965684548570E-03
(PID.TID 0000.0001) %MON dynstat_vvel_min             =  -2.1229680126540E-03
(PID.TID 0000.0001) %MON dynstat_vvel_mean            =   3.8398272248900E-05
(PID.TID 0000.0001) %MON dynstat_vvel_sd              =   1.3442873467419E-04
(PID.TID 0000.0001) %MON dynstat_vvel_del2            =   6.3582976052426E-07
(PID.TID 0000.0001) %MON dynstat_wvel_max             =   2.9819356140073E-04
(PID.TID 0000.0001) %MON dynstat_wvel_min             =  -3.5734719090062E-04
(PID.TID 0000.0001) %MON dynstat_wvel_mean            =   1.0949423148055E-07
(PID.TID 0000.0001) %MON dynstat_wvel_sd              =   5.0971490544896E-05
(PID.TID 0000.0001) %MON dynstat_wvel_del2            =   2.7170054525594E-07
(PID.TID 0000.0001) %MON dynstat_theta_max            =   1.2000000000000E+00
(PID.TID 0000.0001) %MON dynstat_theta_min            =  -1.0000000000000E+00
(PID.TID 0000.0001) %MON dynstat_theta_mean           =   5.6912721701781E-01
(PID.TID 0000.0001) %MON dynstat_theta_sd             =   8.6859631681969E-01
(PID.TID 0000.0001) %MON dynstat_theta_del2           =   2.4892743433757E-06
(PID.TID 0000.0001) %MON dynstat_salt_max             =   3.4700000000000E+01
(PID.TID 0000.0001) %MON dynstat_salt_min             =   3.4000000000000E+01
(PID.TID 0000.0001) %MON dynstat_salt_mean            =   3.4499265054943E+01
(PID.TID 0000.0001) %MON dynstat_salt_sd              =   2.7637087778882E-01
(PID.TID 0000.0001) %MON dynstat_salt_del2            =   7.9039576406880E-07
(PID.TID 0000.0001) %MON advcfl_uvel_max              =   2.1937722357066E-04
(PID.TID 0000.0001) %MON advcfl_vvel_max              =   2.5965684548570E-04
(PID.TID 0000.0001) %MON advcfl_wvel_max              =   1.7867359545031E-03
(PID.TID 0000.0001) %MON advcfl_W_hf_max              =   1.7867359545031E-03
(PID.TID 0000.0001) %MON pe_b_mean                    =  -8.3143579985928E-01
(PID.TID 0000.0001) %MON ke_max                       =   3.6354520640309E-06
(PID.TID 0000.0001) %MON ke_mean                      =   1.2267045284321E-08
(PID.TID 0000.0001) %MON ke_vol                       =   4.2725538472293E+12
(PID.TID 0000.0001) // =======================================================
(PID.TID 0000.0001) // End MONITOR dynamic field statistics
(PID.TID 0000.0001) // =======================================================
(PID.TID 0000.0001) // =======================================================
(PID.TID 0000.0001) // Begin OBCS MONITOR field statistics
(PID.TID 0000.0001) // =======================================================
(PID.TID 0000.0001) %MON obc_N_vVel_max               =   2.8083050878950E-05
(PID.TID 0000.0001) %MON obc_N_vVel_min               =   2.8083050878950E-05
(PID.TID 0000.0001) %MON obc_N_vVel_mean              =   2.8083050878950E-05
(PID.TID 0000.0001) %MON obc_N_vVel_sd                =  -6.3692907166583E-23
(PID.TID 0000.0001) %MON obc_N_vVel_Int               =   1.8534813580107E+03
(PID.TID 0000.0001) // =======================================================
(PID.TID 0000.0001) // End OBCS MONITOR field statistics
(PID.TID 0000.0001) // =======================================================
 cg2d: Sum(rhs),rhsMax =   4.51918697767523E+00  2.99863742679122E+02
(PID.TID 0000.0001)      cg2d_init_res =   8.75984973895741E-06
(PID.TID 0000.0001)      cg2d_iters(min,last) =      -1      84
(PID.TID 0000.0001)      cg2d_last_res =   7.67650016011428E-12
(PID.TID 0000.0001) // =======================================================
(PID.TID 0000.0001) // Begin MONITOR dynamic field statistics
(PID.TID 0000.0001) // =======================================================
(PID.TID 0000.0001) %MON time_tsnumber                =                   120
(PID.TID 0000.0001) %MON time_secondsf                =   1.2000000000000E+04
(PID.TID 0000.0001) %MON dynstat_eta_max              =   5.7975730581722E+00
(PID.TID 0000.0001) %MON dynstat_eta_min              =  -1.4195411541843E+01
(PID.TID 0000.0001) %MON dynstat_eta_mean             =  -2.5095191129490E+00
(PID.TID 0000.0001) %MON dynstat_eta_sd               =   4.9519302392348E+00
(PID.TID 0000.0001) %MON dynstat_eta_del2             =   2.0714001025990E-01
(PID.TID 0000.0001) %MON dynstat_uvel_max             =   2.1748794067307E-03
(PID.TID 0000.0001) %MON dynstat_uvel_min             =  -2.2100540394661E-03
(PID.TID 0000.0001) %MON dynstat_uvel_mean            =  -5.0710553237802E-07
(PID.TID 0000.0001) %MON dynstat_uvel_sd              =   7.1648248550902E-05
(PID.TID 0000.0001) %MON dynstat_uvel_del2            =   3.8720948945965E-07
(PID.TID 0000.0001) %MON dynstat_vvel_max             =   2.6277769111562E-03
(PID.TID 0000.0001) %MON dynstat_vvel_min             =  -2.1324203143545E-03
(PID.TID 0000.0001) %MON dynstat_vvel_mean            =   4.5637279945655E-05
(PID.TID 0000.0001) %MON dynstat_vvel_sd              =   1.3439085054838E-04
(PID.TID 0000.0001) %MON dynstat_vvel_del2            =   6.3449293470199E-07
(PID.TID 0000.0001) %MON dynstat_wvel_max             =   3.2296563127271E-04
(PID.TID 0000.0001) %MON dynstat_wvel_min             =  -3.6524131487626E-04
(PID.TID 0000.0001) %MON dynstat_wvel_mean            =   1.0989340126885E-07
(PID.TID 0000.0001) %MON dynstat_wvel_sd              =   5.0684726222379E-05
(PID.TID 0000.0001) %MON dynstat_wvel_del2            =   2.6915905013764E-07
(PID.TID 0000.0001) %MON dynstat_theta_max            =   1.2000000000000E+00
(PID.TID 0000.0001) %MON dynstat_theta_min            =  -1.0000000000000E+00
(PID.TID 0000.0001) %MON dynstat_theta_mean           =   5.6912697172185E-01
(PID.TID 0000.0001) %MON dynstat_theta_sd             =   8.6859617563138E-01
(PID.TID 0000.0001) %MON dynstat_theta_del2           =   2.4761125292556E-06
(PID.TID 0000.0001) %MON dynstat_salt_max             =   3.4700000000000E+01
(PID.TID 0000.0001) %MON dynstat_salt_min             =   3.4000000000000E+01
(PID.TID 0000.0001) %MON dynstat_salt_mean            =   3.4499264955861E+01
(PID.TID 0000.0001) %MON dynstat_salt_sd              =   2.7637082720439E-01
(PID.TID 0000.0001) %MON dynstat_salt_del2            =   7.8620397306854E-07
(PID.TID 0000.0001) %MON advcfl_uvel_max              =   2.2100540394661E-04
(PID.TID 0000.0001) %MON advcfl_vvel_max              =   2.6277769111562E-04
(PID.TID 0000.0001) %MON advcfl_wvel_max              =   1.8262065743813E-03
(PID.TID 0000.0001) %MON advcfl_W_hf_max              =   1.8262065743813E-03
(PID.TID 0000.0001) %MON pe_b_mean                    =  -8.3144796639759E-01
(PID.TID 0000.0001) %MON ke_max                       =   3.6860277961451E-06
(PID.TID 0000.0001) %MON ke_mean                      =   1.2582207535061E-08
(PID.TID 0000.0001) %MON ke_vol                       =   4.2725536748844E+12
(PID.TID 0000.0001) // =======================================================
(PID.TID 0000.0001) // End MONITOR dynamic field statistics
(PID.TID 0000.0001) // =======================================================
(PID.TID 0000.0001) // =======================================================
(PID.TID 0000.0001) // Begin OBCS MONITOR field statistics
(PID.TID 0000.0001) // =======================================================
(PID.TID 0000.0001) %MON obc_N_vVel_max               =   3.5063497409800E-05
(PID.TID 0000.0001) %MON obc_N_vVel_min               =   3.5063497409799E-05
(PID.TID 0000.0001) %MON obc_N_vVel_mean              =   3.5063497409799E-05
(PID.TID 0000.0001) %MON obc_N_vVel_sd                =   7.5136593485960E-12
(PID.TID 0000.0001) %MON obc_N_vVel_Int               =   2.3141908290468E+03
(PID.TID 0000.0001) // =======================================================
(PID.TID 0000.0001) // End OBCS MONITOR field statistics
(PID.TID 0000.0001) // =======================================================
 cg2d: Sum(rhs),rhsMax =   4.51926440263584E+00  2.99863794335346E+02
(PID.TID 0000.0001)      cg2d_init_res =   8.73457924900839E-06
(PID.TID 0000.0001)      cg2d_iters(min,last) =      -1      84
(PID.TID 0000.0001)      cg2d_last_res =   8.11396849698099E-12
(PID.TID 0000.0001) // =======================================================
(PID.TID 0000.0001) // Begin MONITOR dynamic field statistics
(PID.TID 0000.0001) // =======================================================
(PID.TID 0000.0001) %MON time_tsnumber                =                   121
(PID.TID 0000.0001) %MON time_secondsf                =   1.2100000000000E+04
(PID.TID 0000.0001) %MON dynstat_eta_max              =   5.7974956598415E+00
(PID.TID 0000.0001) %MON dynstat_eta_min              =  -1.4195468525120E+01
(PID.TID 0000.0001) %MON dynstat_eta_mean             =  -2.5095625395908E+00
(PID.TID 0000.0001) %MON dynstat_eta_sd               =   4.9519491505058E+00
(PID.TID 0000.0001) %MON dynstat_eta_del2             =   2.0714001172752E-01
(PID.TID 0000.0001) %MON dynstat_uvel_max             =   2.1899015330646E-03
(PID.TID 0000.0001) %MON dynstat_uvel_min             =  -2.2261076109338E-03
(PID.TID 0000.0001) %MON dynstat_uvel_mean            =  -4.3834572555474E-07
(PID.TID 0000.0001) %MON dynstat_uvel_sd              =   7.1903284143173E-05
(PID.TID 0000.0001) %MON dynstat_uvel_del2            =   3.8818637596479E-07
(PID.TID 0000.0001) %MON dynstat_vvel_max             =   2.6570792635230E-03
(PID.TID 0000.0001) %MON dynstat_vvel_min             =  -2.1434118358661E-03
(PID.TID 0000.0001) %MON dynstat_vvel_mean            =   5.1595081148585E-05
(PID.TID 0000.0001) %MON dynstat_vvel_sd              =   1.3439561200837E-04
(PID.TID 0000.0001) %MON dynstat_vvel_del2            =   6.3445006597981E-07
(PID.TID 0000.0001) %MON dynstat_wvel_max             =   3.4436848554069E-04
(PID.TID 0000.0001) %MON dynstat_wvel_min             =  -3.7109819902712E-04
(PID.TID 0000.0001) %MON dynstat_wvel_mean            =   1.0752086276594E-07
(PID.TID 0000.0001) %MON dynstat_wvel_sd              =   5.0470274658698E-05
(PID.TID 0000.0001) %MON dynstat_wvel_del2            =   2.6776867779285E-07
(PID.TID 0000.0001) %MON dynstat_theta_max            =   1.2000000000000E+00
(PID.TID 0000.0001) %MON dynstat_theta_min            =  -1.0000000000000E+00
(PID.TID 0000.0001) %MON dynstat_theta_mean           =   5.6912672891053E-01
(PID.TID 0000.0001) %MON dynstat_theta_sd             =   8.6859603375792E-01
(PID.TID 0000.0001) %MON dynstat_theta_del2           =   2.4622487471127E-06
(PID.TID 0000.0001) %MON dynstat_salt_max             =   3.4700000000000E+01
(PID.TID 0000.0001) %MON dynstat_salt_min             =   3.4000000000000E+01
(PID.TID 0000.0001) %MON dynstat_salt_mean            =   3.4499264857570E+01
(PID.TID 0000.0001) %MON dynstat_salt_sd              =   2.7637077640485E-01
(PID.TID 0000.0001) %MON dynstat_salt_del2            =   7.8178924848315E-07
(PID.TID 0000.0001) %MON advcfl_uvel_max              =   2.2261076109338E-04
(PID.TID 0000.0001) %MON advcfl_vvel_max              =   2.6570792635230E-04
(PID.TID 0000.0001) %MON advcfl_wvel_max              =   1.8554909951356E-03
(PID.TID 0000.0001) %MON advcfl_W_hf_max              =   1.8554909951356E-03
(PID.TID 0000.0001) %MON pe_b_mean                    =  -8.3146155629872E-01
(PID.TID 0000.0001) %MON ke_max                       =   3.7358151774972E-06
(PID.TID 0000.0001) %MON ke_mean                      =   1.2888617262331E-08
(PID.TID 0000.0001) %MON ke_vol                       =   4.2725534564691E+12
(PID.TID 0000.0001) // =======================================================
(PID.TID 0000.0001) // End MONITOR dynamic field statistics
(PID.TID 0000.0001) // =======================================================
(PID.TID 0000.0001) // =======================================================
(PID.TID 0000.0001) // Begin OBCS MONITOR field statistics
(PID.TID 0000.0001) // =======================================================
(PID.TID 0000.0001) %MON obc_N_vVel_max               =   4.1054309482793E-05
(PID.TID 0000.0001) %MON obc_N_vVel_min               =   4.1054309482792E-05
(PID.TID 0000.0001) %MON obc_N_vVel_mean              =   4.1054309482793E-05
(PID.TID 0000.0001) %MON obc_N_vVel_sd                =  -1.1787323728881E-23
(PID.TID 0000.0001) %MON obc_N_vVel_Int               =   2.7095844258643E+03
(PID.TID 0000.0001) // =======================================================
(PID.TID 0000.0001) // End OBCS MONITOR field statistics
(PID.TID 0000.0001) // =======================================================
 cg2d: Sum(rhs),rhsMax =   4.51935167926640E+00  2.99863843628454E+02
(PID.TID 0000.0001)      cg2d_init_res =   8.75883791874965E-06
(PID.TID 0000.0001)      cg2d_iters(min,last) =      -1      84
(PID.TID 0000.0001)      cg2d_last_res =   8.40912157900003E-12
(PID.TID 0000.0001) // =======================================================
(PID.TID 0000.0001) // Begin MONITOR dynamic field statistics
(PID.TID 0000.0001) // =======================================================
(PID.TID 0000.0001) %MON time_tsnumber                =                   122
(PID.TID 0000.0001) %MON time_secondsf                =   1.2200000000000E+04
(PID.TID 0000.0001) %MON dynstat_eta_max              =   5.7974117055066E+00
(PID.TID 0000.0001) %MON dynstat_eta_min              =  -1.4195530984002E+01
(PID.TID 0000.0001) %MON dynstat_eta_mean             =  -2.5096114171362E+00
(PID.TID 0000.0001) %MON dynstat_eta_sd               =   4.9519688045312E+00
(PID.TID 0000.0001) %MON dynstat_eta_del2             =   2.0714001322284E-01
(PID.TID 0000.0001) %MON dynstat_uvel_max             =   2.2046895168017E-03
(PID.TID 0000.0001) %MON dynstat_uvel_min             =  -2.2419347885787E-03
(PID.TID 0000.0001) %MON dynstat_uvel_mean            =  -3.6438010985818E-07
(PID.TID 0000.0001) %MON dynstat_uvel_sd              =   7.2157950512182E-05
(PID.TID 0000.0001) %MON dynstat_uvel_del2            =   3.8912137780985E-07
(PID.TID 0000.0001) %MON dynstat_vvel_max             =   2.6844080225761E-03
(PID.TID 0000.0001) %MON dynstat_vvel_min             =  -2.1560102960700E-03
(PID.TID 0000.0001) %MON dynstat_vvel_mean            =   5.6195936304339E-05
(PID.TID 0000.0001) %MON dynstat_vvel_sd              =   1.3444447705404E-04
(PID.TID 0000.0001) %MON dynstat_vvel_del2            =   6.3565097777902E-07
(PID.TID 0000.0001) %MON dynstat_wvel_max             =   3.5993821372856E-04
(PID.TID 0000.0001) %MON dynstat_wvel_min             =  -3.6814274470325E-04
(PID.TID 0000.0001) %MON dynstat_wvel_mean            =   1.0261774073576E-07
(PID.TID 0000.0001) %MON dynstat_wvel_sd              =   5.0338007732916E-05
(PID.TID 0000.0001) %MON dynstat_wvel_del2            =   2.6757560606858E-07
(PID.TID 0000.0001) %MON dynstat_theta_max            =   1.2000000000000E+00
(PID.TID 0000.0001) %MON dynstat_theta_min            =  -1.0000000000000E+00
(PID.TID 0000.0001) %MON dynstat_theta_mean           =   5.6912648807352E-01
(PID.TID 0000.0001) %MON dynstat_theta_sd             =   8.6859589150436E-01
(PID.TID 0000.0001) %MON dynstat_theta_del2           =   2.4476841730735E-06
(PID.TID 0000.0001) %MON dynstat_salt_max             =   3.4700000000000E+01
(PID.TID 0000.0001) %MON dynstat_salt_min             =   3.4000000000000E+01
(PID.TID 0000.0001) %MON dynstat_salt_mean            =   3.4499264759906E+01
(PID.TID 0000.0001) %MON dynstat_salt_sd              =   2.7637072548732E-01
(PID.TID 0000.0001) %MON dynstat_salt_del2            =   7.7715167889249E-07
(PID.TID 0000.0001) %MON advcfl_uvel_max              =   2.2419347885787E-04
(PID.TID 0000.0001) %MON advcfl_vvel_max              =   2.6844080225761E-04
(PID.TID 0000.0001) %MON advcfl_wvel_max              =   1.8407137235162E-03
(PID.TID 0000.0001) %MON advcfl_W_hf_max              =   1.8407137235162E-03
(PID.TID 0000.0001) %MON pe_b_mean                    =  -8.3147622560554E-01
(PID.TID 0000.0001) %MON ke_max                       =   3.7847781943392E-06
(PID.TID 0000.0001) %MON ke_mean                      =   1.3159431433779E-08
(PID.TID 0000.0001) %MON ke_vol                       =   4.2725531985148E+12
(PID.TID 0000.0001) // =======================================================
(PID.TID 0000.0001) // End MONITOR dynamic field statistics
(PID.TID 0000.0001) // =======================================================
(PID.TID 0000.0001) // =======================================================
(PID.TID 0000.0001) // Begin OBCS MONITOR field statistics
(PID.TID 0000.0001) // =======================================================
(PID.TID 0000.0001) %MON obc_N_vVel_max               =   4.5960192914550E-05
(PID.TID 0000.0001) %MON obc_N_vVel_min               =   4.5960192914549E-05
(PID.TID 0000.0001) %MON obc_N_vVel_mean              =   4.5960192914549E-05
(PID.TID 0000.0001) %MON obc_N_vVel_sd                =   9.9214158714273E-12
(PID.TID 0000.0001) %MON obc_N_vVel_Int               =   3.0333727323603E+03
(PID.TID 0000.0001) // =======================================================
(PID.TID 0000.0001) // End OBCS MONITOR field statistics
(PID.TID 0000.0001) // =======================================================
 cg2d: Sum(rhs),rhsMax =   4.51944650488244E+00  2.99863891274788E+02
(PID.TID 0000.0001)      cg2d_init_res =   8.82897929358362E-06
(PID.TID 0000.0001)      cg2d_iters(min,last) =      -1      84
(PID.TID 0000.0001)      cg2d_last_res =   8.48288575347181E-12
(PID.TID 0000.0001) // =======================================================
(PID.TID 0000.0001) // Begin MONITOR dynamic field statistics
(PID.TID 0000.0001) // =======================================================
(PID.TID 0000.0001) %MON time_tsnumber                =                   123
(PID.TID 0000.0001) %MON time_secondsf                =   1.2300000000000E+04
(PID.TID 0000.0001) %MON dynstat_eta_max              =   5.7973231740698E+00
(PID.TID 0000.0001) %MON dynstat_eta_min              =  -1.4195597790643E+01
(PID.TID 0000.0001) %MON dynstat_eta_mean             =  -2.5096644728931E+00
(PID.TID 0000.0001) %MON dynstat_eta_sd               =   4.9519887547617E+00
(PID.TID 0000.0001) %MON dynstat_eta_del2             =   2.0714001475279E-01
(PID.TID 0000.0001) %MON dynstat_uvel_max             =   2.2192401357053E-03
(PID.TID 0000.0001) %MON dynstat_uvel_min             =  -2.2575381715697E-03
(PID.TID 0000.0001) %MON dynstat_uvel_mean            =  -2.8761082826740E-07
(PID.TID 0000.0001) %MON dynstat_uvel_sd              =   7.2411482271814E-05
(PID.TID 0000.0001) %MON dynstat_uvel_del2            =   3.9001512573733E-07
(PID.TID 0000.0001) %MON dynstat_vvel_max             =   2.7097482425678E-03
(PID.TID 0000.0001) %MON dynstat_vvel_min             =  -2.1702313863488E-03
(PID.TID 0000.0001) %MON dynstat_vvel_mean            =   5.9405035622265E-05
(PID.TID 0000.0001) %MON dynstat_vvel_sd              =   1.3453273735297E-04
(PID.TID 0000.0001) %MON dynstat_vvel_del2            =   6.3788426878325E-07
(PID.TID 0000.0001) %MON dynstat_wvel_max             =   3.6911665147487E-04
(PID.TID 0000.0001) %MON dynstat_wvel_min             =  -3.5657123022138E-04
(PID.TID 0000.0001) %MON dynstat_wvel_mean            =   9.5477586457001E-08
(PID.TID 0000.0001) %MON dynstat_wvel_sd              =   5.0286340024944E-05
(PID.TID 0000.0001) %MON dynstat_wvel_del2            =   2.6845573286571E-07
(PID.TID 0000.0001) %MON dynstat_theta_max            =   1.2000000000000E+00
(PID.TID 0000.0001) %MON dynstat_theta_min            =  -1.0000000000000E+00
(PID.TID 0000.0001) %MON dynstat_theta_mean           =   5.6912624867968E-01
(PID.TID 0000.0001) %MON dynstat_theta_sd             =   8.6859574901473E-01
(PID.TID 0000.0001) %MON dynstat_theta_del2           =   2.4325214399201E-06
(PID.TID 0000.0001) %MON dynstat_salt_max             =   3.4700000000000E+01
(PID.TID 0000.0001) %MON dynstat_salt_min             =   3.4000000000000E+01
(PID.TID 0000.0001) %MON dynstat_salt_mean            =   3.4499264662700E+01
(PID.TID 0000.0001) %MON dynstat_salt_sd              =   2.7637067449698E-01
(PID.TID 0000.0001) %MON dynstat_salt_del2            =   7.7232371219914E-07
(PID.TID 0000.0001) %MON advcfl_uvel_max              =   2.2575381715697E-04
(PID.TID 0000.0001) %MON advcfl_vvel_max              =   2.7097482425678E-04
(PID.TID 0000.0001) %MON advcfl_wvel_max              =   1.8455832573744E-03
(PID.TID 0000.0001) %MON advcfl_W_hf_max              =   1.8455832573744E-03
(PID.TID 0000.0001) %MON pe_b_mean                    =  -8.3149162383951E-01
(PID.TID 0000.0001) %MON ke_max                       =   3.8328930400009E-06
(PID.TID 0000.0001) %MON ke_mean                      =   1.3373320921401E-08
(PID.TID 0000.0001) %MON ke_vol                       =   4.2725529081822E+12
(PID.TID 0000.0001) // =======================================================
(PID.TID 0000.0001) // End MONITOR dynamic field statistics
(PID.TID 0000.0001) // =======================================================
(PID.TID 0000.0001) // =======================================================
(PID.TID 0000.0001) // Begin OBCS MONITOR field statistics
(PID.TID 0000.0001) // =======================================================
(PID.TID 0000.0001) %MON obc_N_vVel_max               =   4.9720665076067E-05
(PID.TID 0000.0001) %MON obc_N_vVel_min               =   4.9720665076066E-05
(PID.TID 0000.0001) %MON obc_N_vVel_mean              =   4.9720665076066E-05
(PID.TID 0000.0001) %MON obc_N_vVel_sd                =   4.2171534439584E-12
(PID.TID 0000.0001) %MON obc_N_vVel_Int               =   3.2815638950204E+03
(PID.TID 0000.0001) // =======================================================
(PID.TID 0000.0001) // End OBCS MONITOR field statistics
(PID.TID 0000.0001) // =======================================================
 cg2d: Sum(rhs),rhsMax =   4.51954652442367E+00  2.99863937988191E+02
(PID.TID 0000.0001)      cg2d_init_res =   8.93708646433470E-06
(PID.TID 0000.0001)      cg2d_iters(min,last) =      -1      84
(PID.TID 0000.0001)      cg2d_last_res =   8.16835585160856E-12
(PID.TID 0000.0001) // =======================================================
(PID.TID 0000.0001) // Begin MONITOR dynamic field statistics
(PID.TID 0000.0001) // =======================================================
(PID.TID 0000.0001) %MON time_tsnumber                =                   124
(PID.TID 0000.0001) %MON time_secondsf                =   1.2400000000000E+04
(PID.TID 0000.0001) %MON dynstat_eta_max              =   5.7972320375424E+00
(PID.TID 0000.0001) %MON dynstat_eta_min              =  -1.4195667772510E+01
(PID.TID 0000.0001) %MON dynstat_eta_mean             =  -2.5097204050639E+00
(PID.TID 0000.0001) %MON dynstat_eta_sd               =   4.9520085755036E+00
(PID.TID 0000.0001) %MON dynstat_eta_del2             =   2.0714001632329E-01
(PID.TID 0000.0001) %MON dynstat_uvel_max             =   2.2335500324004E-03
(PID.TID 0000.0001) %MON dynstat_uvel_min             =  -2.2729209811878E-03
(PID.TID 0000.0001) %MON dynstat_uvel_mean            =  -2.1046475436571E-07
(PID.TID 0000.0001) %MON dynstat_uvel_sd              =   7.2663176847238E-05
(PID.TID 0000.0001) %MON dynstat_uvel_del2            =   3.9086826401173E-07
(PID.TID 0000.0001) %MON dynstat_vvel_max             =   2.7331342509118E-03
(PID.TID 0000.0001) %MON dynstat_vvel_min             =  -2.1860419523767E-03
(PID.TID 0000.0001) %MON dynstat_vvel_mean            =   6.1226799496648E-05
(PID.TID 0000.0001) %MON dynstat_vvel_sd              =   1.3465001909608E-04
(PID.TID 0000.0001) %MON dynstat_vvel_del2            =   6.4081330610897E-07
(PID.TID 0000.0001) %MON dynstat_wvel_max             =   3.7165933835621E-04
(PID.TID 0000.0001) %MON dynstat_wvel_min             =  -3.3696361453139E-04
(PID.TID 0000.0001) %MON dynstat_wvel_mean            =   8.6434976317849E-08
(PID.TID 0000.0001) %MON dynstat_wvel_sd              =   5.0302916197313E-05
(PID.TID 0000.0001) %MON dynstat_wvel_del2            =   2.7014164485345E-07
(PID.TID 0000.0001) %MON dynstat_theta_max            =   1.2000000000000E+00
(PID.TID 0000.0001) %MON dynstat_theta_min            =  -1.0000000000000E+00
(PID.TID 0000.0001) %MON dynstat_theta_mean           =   5.6912601019499E-01
(PID.TID 0000.0001) %MON dynstat_theta_sd             =   8.6859560626391E-01
(PID.TID 0000.0001) %MON dynstat_theta_del2           =   2.4169632601826E-06
(PID.TID 0000.0001) %MON dynstat_salt_max             =   3.4700000000000E+01
(PID.TID 0000.0001) %MON dynstat_salt_min             =   3.4000000000000E+01
(PID.TID 0000.0001) %MON dynstat_salt_mean            =   3.4499264565783E+01
(PID.TID 0000.0001) %MON dynstat_salt_sd              =   2.7637062342585E-01
(PID.TID 0000.0001) %MON dynstat_salt_del2            =   7.6736976435294E-07
(PID.TID 0000.0001) %MON advcfl_uvel_max              =   2.2729209811878E-04
(PID.TID 0000.0001) %MON advcfl_vvel_max              =   2.7331342509118E-04
(PID.TID 0000.0001) %MON advcfl_wvel_max              =   1.8582966917811E-03
(PID.TID 0000.0001) %MON advcfl_W_hf_max              =   1.8582966917811E-03
(PID.TID 0000.0001) %MON pe_b_mean                    =  -8.3150740374117E-01
(PID.TID 0000.0001) %MON ke_max                       =   3.8801480616913E-06
(PID.TID 0000.0001) %MON ke_mean                      =   1.3515832975457E-08
(PID.TID 0000.0001) %MON ke_vol                       =   4.2725525930310E+12
(PID.TID 0000.0001) // =======================================================
(PID.TID 0000.0001) // End MONITOR dynamic field statistics
(PID.TID 0000.0001) // =======================================================
(PID.TID 0000.0001) // =======================================================
(PID.TID 0000.0001) // Begin OBCS MONITOR field statistics
(PID.TID 0000.0001) // =======================================================
(PID.TID 0000.0001) %MON obc_N_vVel_max               =   5.2309518651861E-05
(PID.TID 0000.0001) %MON obc_N_vVel_min               =   5.2309518651860E-05
(PID.TID 0000.0001) %MON obc_N_vVel_mean              =   5.2309518651861E-05
(PID.TID 0000.0001) %MON obc_N_vVel_sd                =  -2.1217182711985E-22
(PID.TID 0000.0001) %MON obc_N_vVel_Int               =   3.4524282310228E+03
(PID.TID 0000.0001) // =======================================================
(PID.TID 0000.0001) // End OBCS MONITOR field statistics
(PID.TID 0000.0001) // =======================================================
 cg2d: Sum(rhs),rhsMax =   4.51964939644365E+00  2.99863984460058E+02
(PID.TID 0000.0001)      cg2d_init_res =   9.07207243518186E-06
(PID.TID 0000.0001)      cg2d_iters(min,last) =      -1      83
(PID.TID 0000.0001)      cg2d_last_res =   9.66526749588644E-12
(PID.TID 0000.0001) // =======================================================
(PID.TID 0000.0001) // Begin MONITOR dynamic field statistics
(PID.TID 0000.0001) // =======================================================
(PID.TID 0000.0001) %MON time_tsnumber                =                   125
(PID.TID 0000.0001) %MON time_secondsf                =   1.2500000000000E+04
(PID.TID 0000.0001) %MON dynstat_eta_max              =   5.7971402080431E+00
(PID.TID 0000.0001) %MON dynstat_eta_min              =  -1.4195739747075E+01
(PID.TID 0000.0001) %MON dynstat_eta_mean             =  -2.5097779192224E+00
(PID.TID 0000.0001) %MON dynstat_eta_sd               =   4.9520278718792E+00
(PID.TID 0000.0001) %MON dynstat_eta_del2             =   2.0714001793883E-01
(PID.TID 0000.0001) %MON dynstat_uvel_max             =   2.2476161294342E-03
(PID.TID 0000.0001) %MON dynstat_uvel_min             =  -2.2880869248887E-03
(PID.TID 0000.0001) %MON dynstat_uvel_mean            =  -1.3530238925068E-07
(PID.TID 0000.0001) %MON dynstat_uvel_sd              =   7.2912404544984E-05
(PID.TID 0000.0001) %MON dynstat_uvel_del2            =   3.9168144779959E-07
(PID.TID 0000.0001) %MON dynstat_vvel_max             =   2.7546453941891E-03
(PID.TID 0000.0001) %MON dynstat_vvel_min             =  -2.2033641890191E-03
(PID.TID 0000.0001) %MON dynstat_vvel_mean            =   6.1702242413526E-05
(PID.TID 0000.0001) %MON dynstat_vvel_sd              =   1.3478160859825E-04
(PID.TID 0000.0001) %MON dynstat_vvel_del2            =   6.4402746385879E-07
(PID.TID 0000.0001) %MON dynstat_wvel_max             =   3.7925289010917E-04
(PID.TID 0000.0001) %MON dynstat_wvel_min             =  -3.2204428036762E-04
(PID.TID 0000.0001) %MON dynstat_wvel_mean            =   7.5853637945442E-08
(PID.TID 0000.0001) %MON dynstat_wvel_sd              =   5.0366849316532E-05
(PID.TID 0000.0001) %MON dynstat_wvel_del2            =   2.7227178851169E-07
(PID.TID 0000.0001) %MON dynstat_theta_max            =   1.2000000000000E+00
(PID.TID 0000.0001) %MON dynstat_theta_min            =  -1.0000000000000E+00
(PID.TID 0000.0001) %MON dynstat_theta_mean           =   5.6912577209551E-01
(PID.TID 0000.0001) %MON dynstat_theta_sd             =   8.6859546354405E-01
(PID.TID 0000.0001) %MON dynstat_theta_del2           =   2.4012708128464E-06
(PID.TID 0000.0001) %MON dynstat_salt_max             =   3.4700000000000E+01
(PID.TID 0000.0001) %MON dynstat_salt_min             =   3.4000000000000E+01
(PID.TID 0000.0001) %MON dynstat_salt_mean            =   3.4499264468989E+01
(PID.TID 0000.0001) %MON dynstat_salt_sd              =   2.7637057236643E-01
(PID.TID 0000.0001) %MON dynstat_salt_del2            =   7.6237298268940E-07
(PID.TID 0000.0001) %MON advcfl_uvel_max              =   2.2880869248887E-04
(PID.TID 0000.0001) %MON advcfl_vvel_max              =   2.7546453941891E-04
(PID.TID 0000.0001) %MON advcfl_wvel_max              =   1.8962644505459E-03
(PID.TID 0000.0001) %MON advcfl_W_hf_max              =   1.8962644505459E-03
(PID.TID 0000.0001) %MON pe_b_mean                    =  -8.3152323029645E-01
(PID.TID 0000.0001) %MON ke_max                       =   3.9265433298281E-06
(PID.TID 0000.0001) %MON ke_mean                      =   1.3579964396492E-08
(PID.TID 0000.0001) %MON ke_vol                       =   4.2725522607939E+12
(PID.TID 0000.0001) // =======================================================
(PID.TID 0000.0001) // End MONITOR dynamic field statistics
(PID.TID 0000.0001) // =======================================================
(PID.TID 0000.0001) // =======================================================
(PID.TID 0000.0001) // Begin OBCS MONITOR field statistics
(PID.TID 0000.0001) // =======================================================
(PID.TID 0000.0001) %MON obc_N_vVel_max               =   5.3733386565164E-05
(PID.TID 0000.0001) %MON obc_N_vVel_min               =   5.3733386565162E-05
(PID.TID 0000.0001) %MON obc_N_vVel_mean              =   5.3733386565162E-05
(PID.TID 0000.0001) %MON obc_N_vVel_sd                =   1.8041495809373E-11
(PID.TID 0000.0001) %MON obc_N_vVel_Int               =   3.5464035133007E+03
(PID.TID 0000.0001) // =======================================================
(PID.TID 0000.0001) // End OBCS MONITOR field statistics
(PID.TID 0000.0001) // =======================================================
 cg2d: Sum(rhs),rhsMax =   4.51975285455752E+00  2.99864031341544E+02
(PID.TID 0000.0001)      cg2d_init_res =   9.22098298306869E-06
(PID.TID 0000.0001)      cg2d_iters(min,last) =      -1      79
(PID.TID 0000.0001)      cg2d_last_res =   9.60387966535523E-12
(PID.TID 0000.0001) // =======================================================
(PID.TID 0000.0001) // Begin MONITOR dynamic field statistics
(PID.TID 0000.0001) // =======================================================
(PID.TID 0000.0001) %MON time_tsnumber                =                   126
(PID.TID 0000.0001) %MON time_secondsf                =   1.2600000000000E+04
(PID.TID 0000.0001) %MON dynstat_eta_max              =   5.7970494927275E+00
(PID.TID 0000.0001) %MON dynstat_eta_min              =  -1.4195812555018E+01
(PID.TID 0000.0001) %MON dynstat_eta_mean             =  -2.5098357622872E+00
(PID.TID 0000.0001) %MON dynstat_eta_sd               =   4.9520462883532E+00
(PID.TID 0000.0001) %MON dynstat_eta_del2             =   2.0714001960242E-01
(PID.TID 0000.0001) %MON dynstat_uvel_max             =   2.2614359505972E-03
(PID.TID 0000.0001) %MON dynstat_uvel_min             =  -2.3030400621806E-03
(PID.TID 0000.0001) %MON dynstat_uvel_mean            =  -6.4321234401672E-08
(PID.TID 0000.0001) %MON dynstat_uvel_sd              =   7.3158613218948E-05
(PID.TID 0000.0001) %MON dynstat_uvel_del2            =   3.9245533730672E-07
(PID.TID 0000.0001) %MON dynstat_vvel_max             =   2.7744009038901E-03
(PID.TID 0000.0001) %MON dynstat_vvel_min             =  -2.2220808242785E-03
(PID.TID 0000.0001) %MON dynstat_vvel_mean            =   6.0905527445827E-05
(PID.TID 0000.0001) %MON dynstat_vvel_sd              =   1.3491039495861E-04
(PID.TID 0000.0001) %MON dynstat_vvel_del2            =   6.4709901449071E-07
(PID.TID 0000.0001) %MON dynstat_wvel_max             =   3.7991039865620E-04
(PID.TID 0000.0001) %MON dynstat_wvel_min             =  -3.2174566538665E-04
(PID.TID 0000.0001) %MON dynstat_wvel_mean            =   6.4114641024902E-08
(PID.TID 0000.0001) %MON dynstat_wvel_sd              =   5.0452042890138E-05
(PID.TID 0000.0001) %MON dynstat_wvel_del2            =   2.7444895606358E-07
(PID.TID 0000.0001) %MON dynstat_theta_max            =   1.2000000000000E+00
(PID.TID 0000.0001) %MON dynstat_theta_min            =  -1.0000000000000E+00
(PID.TID 0000.0001) %MON dynstat_theta_mean           =   5.6912553387977E-01
(PID.TID 0000.0001) %MON dynstat_theta_sd             =   8.6859532104443E-01
(PID.TID 0000.0001) %MON dynstat_theta_del2           =   2.3857295260842E-06
(PID.TID 0000.0001) %MON dynstat_salt_max             =   3.4700000000000E+01
(PID.TID 0000.0001) %MON dynstat_salt_min             =   3.4000000000000E+01
(PID.TID 0000.0001) %MON dynstat_salt_mean            =   3.4499264372156E+01
(PID.TID 0000.0001) %MON dynstat_salt_sd              =   2.7637052137860E-01
(PID.TID 0000.0001) %MON dynstat_salt_del2            =   7.5742425119767E-07
(PID.TID 0000.0001) %MON advcfl_uvel_max              =   2.3030400621806E-04
(PID.TID 0000.0001) %MON advcfl_vvel_max              =   2.7744009038901E-04
(PID.TID 0000.0001) %MON advcfl_wvel_max              =   1.8995519932810E-03
(PID.TID 0000.0001) %MON advcfl_W_hf_max              =   1.8995519932810E-03
(PID.TID 0000.0001) %MON pe_b_mean                    =  -8.3153878885788E-01
(PID.TID 0000.0001) %MON ke_max                       =   3.9720897745517E-06
(PID.TID 0000.0001) %MON ke_mean                      =   1.3565987322752E-08
(PID.TID 0000.0001) %MON ke_vol                       =   4.2725519191598E+12
(PID.TID 0000.0001) // =======================================================
(PID.TID 0000.0001) // End MONITOR dynamic field statistics
(PID.TID 0000.0001) // =======================================================
(PID.TID 0000.0001) // =======================================================
(PID.TID 0000.0001) // Begin OBCS MONITOR field statistics
(PID.TID 0000.0001) // =======================================================
(PID.TID 0000.0001) %MON obc_N_vVel_max               =   5.4029484405214E-05
(PID.TID 0000.0001) %MON obc_N_vVel_min               =   5.4029484405213E-05
(PID.TID 0000.0001) %MON obc_N_vVel_mean              =   5.4029484405214E-05
(PID.TID 0000.0001) %MON obc_N_vVel_sd                =   3.6943849430081E-12
(PID.TID 0000.0001) %MON obc_N_vVel_Int               =   3.5659459707441E+03
(PID.TID 0000.0001) // =======================================================
(PID.TID 0000.0001) // End OBCS MONITOR field statistics
(PID.TID 0000.0001) // =======================================================
 cg2d: Sum(rhs),rhsMax =   4.51985476292954E+00  2.99864079230192E+02
(PID.TID 0000.0001)      cg2d_init_res =   9.37166577608628E-06
(PID.TID 0000.0001)      cg2d_iters(min,last) =      -1      77
(PID.TID 0000.0001)      cg2d_last_res =   8.69173341747549E-12
(PID.TID 0000.0001) // =======================================================
(PID.TID 0000.0001) // Begin MONITOR dynamic field statistics
(PID.TID 0000.0001) // =======================================================
(PID.TID 0000.0001) %MON time_tsnumber                =                   127
(PID.TID 0000.0001) %MON time_secondsf                =   1.2700000000000E+04
(PID.TID 0000.0001) %MON dynstat_eta_max              =   5.7969615504188E+00
(PID.TID 0000.0001) %MON dynstat_eta_min              =  -1.4195885089675E+01
(PID.TID 0000.0001) %MON dynstat_eta_mean             =  -2.5098927532224E+00
(PID.TID 0000.0001) %MON dynstat_eta_sd               =   4.9520635156390E+00
(PID.TID 0000.0001) %MON dynstat_eta_del2             =   2.0714002131595E-01
(PID.TID 0000.0001) %MON dynstat_uvel_max             =   2.2750078826768E-03
(PID.TID 0000.0001) %MON dynstat_uvel_min             =  -2.3177847011091E-03
(PID.TID 0000.0001) %MON dynstat_uvel_mean            =   5.3404571984384E-10
(PID.TID 0000.0001) %MON dynstat_uvel_sd              =   7.3401329167717E-05
(PID.TID 0000.0001) %MON dynstat_uvel_del2            =   3.9319059280988E-07
(PID.TID 0000.0001) %MON dynstat_vvel_max             =   2.7925544882841E-03
(PID.TID 0000.0001) %MON dynstat_vvel_min             =  -2.2420405051298E-03
(PID.TID 0000.0001) %MON dynstat_vvel_mean            =   5.8939858730259E-05
(PID.TID 0000.0001) %MON dynstat_vvel_sd              =   1.3501913528313E-04
(PID.TID 0000.0001) %MON dynstat_vvel_del2            =   6.4963713466548E-07
(PID.TID 0000.0001) %MON dynstat_wvel_max             =   3.7332366238942E-04
(PID.TID 0000.0001) %MON dynstat_wvel_min             =  -3.1717791320154E-04
(PID.TID 0000.0001) %MON dynstat_wvel_mean            =   5.1604769398788E-08
(PID.TID 0000.0001) %MON dynstat_wvel_sd              =   5.0530997347889E-05
(PID.TID 0000.0001) %MON dynstat_wvel_del2            =   2.7629607342214E-07
(PID.TID 0000.0001) %MON dynstat_theta_max            =   1.2000000000000E+00
(PID.TID 0000.0001) %MON dynstat_theta_min            =  -1.0000000000000E+00
(PID.TID 0000.0001) %MON dynstat_theta_mean           =   5.6912529508119E-01
(PID.TID 0000.0001) %MON dynstat_theta_sd             =   8.6859517894121E-01
(PID.TID 0000.0001) %MON dynstat_theta_del2           =   2.3706145427978E-06
(PID.TID 0000.0001) %MON dynstat_salt_max             =   3.4700000000000E+01
(PID.TID 0000.0001) %MON dynstat_salt_min             =   3.4000000000000E+01
(PID.TID 0000.0001) %MON dynstat_salt_mean            =   3.4499264275138E+01
(PID.TID 0000.0001) %MON dynstat_salt_sd              =   2.7637047051774E-01
(PID.TID 0000.0001) %MON dynstat_salt_del2            =   7.5261121028624E-07
(PID.TID 0000.0001) %MON advcfl_uvel_max              =   2.3177847011091E-04
(PID.TID 0000.0001) %MON advcfl_vvel_max              =   2.7925544882841E-04
(PID.TID 0000.0001) %MON advcfl_wvel_max              =   1.8666183119471E-03
(PID.TID 0000.0001) %MON advcfl_W_hf_max              =   1.8666183119471E-03
(PID.TID 0000.0001) %MON pe_b_mean                    =  -8.3155379219454E-01
(PID.TID 0000.0001) %MON ke_max                       =   4.0168079710753E-06
(PID.TID 0000.0001) %MON ke_mean                      =   1.3480633893202E-08
(PID.TID 0000.0001) %MON ke_vol                       =   4.2725515755720E+12
(PID.TID 0000.0001) // =======================================================
(PID.TID 0000.0001) // End MONITOR dynamic field statistics
(PID.TID 0000.0001) // =======================================================
(PID.TID 0000.0001) // =======================================================
(PID.TID 0000.0001) // Begin OBCS MONITOR field statistics
(PID.TID 0000.0001) // =======================================================
(PID.TID 0000.0001) %MON obc_N_vVel_max               =   5.3262653460274E-05
(PID.TID 0000.0001) %MON obc_N_vVel_min               =   5.3262653460274E-05
(PID.TID 0000.0001) %MON obc_N_vVel_mean              =   5.3262653460274E-05
(PID.TID 0000.0001) %MON obc_N_vVel_sd                =  -2.2747466845208E-23
(PID.TID 0000.0001) %MON obc_N_vVel_Int               =   3.5153351283781E+03
(PID.TID 0000.0001) // =======================================================
(PID.TID 0000.0001) // End OBCS MONITOR field statistics
(PID.TID 0000.0001) // =======================================================
 cg2d: Sum(rhs),rhsMax =   4.51995316473073E+00  2.99864128650906E+02
(PID.TID 0000.0001)      cg2d_init_res =   9.51178727576012E-06
(PID.TID 0000.0001)      cg2d_iters(min,last) =      -1      79
(PID.TID 0000.0001)      cg2d_last_res =   9.80432260390664E-12
(PID.TID 0000.0001) // =======================================================
(PID.TID 0000.0001) // Begin MONITOR dynamic field statistics
(PID.TID 0000.0001) // =======================================================
(PID.TID 0000.0001) %MON time_tsnumber                =                   128
(PID.TID 0000.0001) %MON time_secondsf                =   1.2800000000000E+04
(PID.TID 0000.0001) %MON dynstat_eta_max              =   5.7968778584511E+00
(PID.TID 0000.0001) %MON dynstat_eta_min              =  -1.4195956323598E+01
(PID.TID 0000.0001) %MON dynstat_eta_mean             =  -2.5099478097868E+00
(PID.TID 0000.0001) %MON dynstat_eta_sd               =   4.9520792959698E+00
(PID.TID 0000.0001) %MON dynstat_eta_del2             =   2.0714002307998E-01
(PID.TID 0000.0001) %MON dynstat_uvel_max             =   2.2883312116484E-03
(PID.TID 0000.0001) %MON dynstat_uvel_min             =  -2.3323253098653E-03
(PID.TID 0000.0001) %MON dynstat_uvel_mean            =   5.7665107486574E-08
(PID.TID 0000.0001) %MON dynstat_uvel_sd              =   7.3640157759061E-05
(PID.TID 0000.0001) %MON dynstat_uvel_del2            =   3.9388786603051E-07
(PID.TID 0000.0001) %MON dynstat_vvel_max             =   2.8092875994883E-03
(PID.TID 0000.0001) %MON dynstat_vvel_min             =  -2.2630643306307E-03
(PID.TID 0000.0001) %MON dynstat_vvel_mean            =   5.5932852544436E-05
(PID.TID 0000.0001) %MON dynstat_vvel_sd              =   1.3509270608624E-04
(PID.TID 0000.0001) %MON dynstat_vvel_del2            =   6.5133236251410E-07
(PID.TID 0000.0001) %MON dynstat_wvel_max             =   3.5958548112191E-04
(PID.TID 0000.0001) %MON dynstat_wvel_min             =  -3.0825534834158E-04
(PID.TID 0000.0001) %MON dynstat_wvel_mean            =   3.8706368433403E-08
(PID.TID 0000.0001) %MON dynstat_wvel_sd              =   5.0578497072032E-05
(PID.TID 0000.0001) %MON dynstat_wvel_del2            =   2.7750131957549E-07
(PID.TID 0000.0001) %MON dynstat_theta_max            =   1.2000000000000E+00
(PID.TID 0000.0001) %MON dynstat_theta_min            =  -1.0000000000000E+00
(PID.TID 0000.0001) %MON dynstat_theta_mean           =   5.6912505527842E-01
(PID.TID 0000.0001) %MON dynstat_theta_sd             =   8.6859503743712E-01
(PID.TID 0000.0001) %MON dynstat_theta_del2           =   2.3561518555911E-06
(PID.TID 0000.0001) %MON dynstat_salt_max             =   3.4700000000000E+01
(PID.TID 0000.0001) %MON dynstat_salt_min             =   3.4000000000000E+01
(PID.TID 0000.0001) %MON dynstat_salt_mean            =   3.4499264177799E+01
(PID.TID 0000.0001) %MON dynstat_salt_sd              =   2.7637041984831E-01
(PID.TID 0000.0001) %MON dynstat_salt_del2            =   7.4800593114631E-07
(PID.TID 0000.0001) %MON advcfl_uvel_max              =   2.3323253098653E-04
(PID.TID 0000.0001) %MON advcfl_vvel_max              =   2.8092875994883E-04
(PID.TID 0000.0001) %MON advcfl_wvel_max              =   1.7979274056095E-03
(PID.TID 0000.0001) %MON advcfl_W_hf_max              =   1.7979274056095E-03
(PID.TID 0000.0001) %MON pe_b_mean                    =  -8.3156798635856E-01
(PID.TID 0000.0001) %MON ke_max                       =   4.0607266107699E-06
(PID.TID 0000.0001) %MON ke_mean                      =   1.3335789977527E-08
(PID.TID 0000.0001) %MON ke_vol                       =   4.2725512370459E+12
(PID.TID 0000.0001) // =======================================================
(PID.TID 0000.0001) // End MONITOR dynamic field statistics
(PID.TID 0000.0001) // =======================================================
(PID.TID 0000.0001) // =======================================================
(PID.TID 0000.0001) // Begin OBCS MONITOR field statistics
(PID.TID 0000.0001) // =======================================================
(PID.TID 0000.0001) %MON obc_N_vVel_max               =   5.1521809180133E-05
(PID.TID 0000.0001) %MON obc_N_vVel_min               =   5.1521809180133E-05
(PID.TID 0000.0001) %MON obc_N_vVel_mean              =   5.1521809180133E-05
(PID.TID 0000.0001) %MON obc_N_vVel_sd                =  -4.6322114302970E-23
(PID.TID 0000.0001) %MON obc_N_vVel_Int               =   3.4004394058888E+03
(PID.TID 0000.0001) // =======================================================
(PID.TID 0000.0001) // End OBCS MONITOR field statistics
(PID.TID 0000.0001) // =======================================================
 cg2d: Sum(rhs),rhsMax =   4.52004632256389E+00  2.99864180053624E+02
(PID.TID 0000.0001)      cg2d_init_res =   9.63278676898284E-06
(PID.TID 0000.0001)      cg2d_iters(min,last) =      -1      82
(PID.TID 0000.0001)      cg2d_last_res =   9.92024557220725E-12
(PID.TID 0000.0001) // =======================================================
(PID.TID 0000.0001) // Begin MONITOR dynamic field statistics
(PID.TID 0000.0001) // =======================================================
(PID.TID 0000.0001) %MON time_tsnumber                =                   129
(PID.TID 0000.0001) %MON time_secondsf                =   1.2900000000000E+04
(PID.TID 0000.0001) %MON dynstat_eta_max              =   5.7967996843547E+00
(PID.TID 0000.0001) %MON dynstat_eta_min              =  -1.4196025330723E+01
(PID.TID 0000.0001) %MON dynstat_eta_mean             =  -2.5099999709630E+00
(PID.TID 0000.0001) %MON dynstat_eta_sd               =   4.9520934266342E+00
(PID.TID 0000.0001) %MON dynstat_eta_del2             =   2.0714002489384E-01
(PID.TID 0000.0001) %MON dynstat_uvel_max             =   2.3014061934283E-03
(PID.TID 0000.0001) %MON dynstat_uvel_min             =  -2.3466663887532E-03
(PID.TID 0000.0001) %MON dynstat_uvel_mean            =   1.0587031329774E-07
(PID.TID 0000.0001) %MON dynstat_uvel_sd              =   7.3874779734422E-05
(PID.TID 0000.0001) %MON dynstat_uvel_del2            =   3.9454779060443E-07
(PID.TID 0000.0001) %MON dynstat_vvel_max             =   2.8248035978766E-03
(PID.TID 0000.0001) %MON dynstat_vvel_min             =  -2.2849519349730E-03
(PID.TID 0000.0001) %MON dynstat_vvel_mean            =   5.2031569517633E-05
(PID.TID 0000.0001) %MON dynstat_vvel_sd              =   1.3512004561932E-04
(PID.TID 0000.0001) %MON dynstat_vvel_del2            =   6.5198769542731E-07
(PID.TID 0000.0001) %MON dynstat_wvel_max             =   3.3893836203870E-04
(PID.TID 0000.0001) %MON dynstat_wvel_min             =  -2.9496331909062E-04
(PID.TID 0000.0001) %MON dynstat_wvel_mean            =   2.5786907234625E-08
(PID.TID 0000.0001) %MON dynstat_wvel_sd              =   5.0574681584416E-05
(PID.TID 0000.0001) %MON dynstat_wvel_del2            =   2.7784916679909E-07
(PID.TID 0000.0001) %MON dynstat_theta_max            =   1.2000000000000E+00
(PID.TID 0000.0001) %MON dynstat_theta_min            =  -1.0000000000000E+00
(PID.TID 0000.0001) %MON dynstat_theta_mean           =   5.6912481410436E-01
(PID.TID 0000.0001) %MON dynstat_theta_sd             =   8.6859489672551E-01
(PID.TID 0000.0001) %MON dynstat_theta_del2           =   2.3424960706176E-06
(PID.TID 0000.0001) %MON dynstat_salt_max             =   3.4700000000000E+01
(PID.TID 0000.0001) %MON dynstat_salt_min             =   3.4000000000000E+01
(PID.TID 0000.0001) %MON dynstat_salt_mean            =   3.4499264080023E+01
(PID.TID 0000.0001) %MON dynstat_salt_sd              =   2.7637036943126E-01
(PID.TID 0000.0001) %MON dynstat_salt_del2            =   7.4365777368470E-07
(PID.TID 0000.0001) %MON advcfl_uvel_max              =   2.3466663887532E-04
(PID.TID 0000.0001) %MON advcfl_vvel_max              =   2.8248035978766E-04
(PID.TID 0000.0001) %MON advcfl_wvel_max              =   1.6946918101935E-03
(PID.TID 0000.0001) %MON advcfl_W_hf_max              =   1.6946918101935E-03
(PID.TID 0000.0001) %MON pe_b_mean                    =  -8.3158115527967E-01
(PID.TID 0000.0001) %MON ke_max                       =   4.1038807687736E-06
(PID.TID 0000.0001) %MON ke_mean                      =   1.3146878899655E-08
(PID.TID 0000.0001) %MON ke_vol                       =   4.2725509100099E+12
(PID.TID 0000.0001) // =======================================================
(PID.TID 0000.0001) // End MONITOR dynamic field statistics
(PID.TID 0000.0001) // =======================================================
(PID.TID 0000.0001) // =======================================================
(PID.TID 0000.0001) // Begin OBCS MONITOR field statistics
(PID.TID 0000.0001) // =======================================================
(PID.TID 0000.0001) %MON obc_N_vVel_max               =   4.8916046455257E-05
(PID.TID 0000.0001) %MON obc_N_vVel_min               =   4.8916046455256E-05
(PID.TID 0000.0001) %MON obc_N_vVel_mean              =   4.8916046455257E-05
(PID.TID 0000.0001) %MON obc_N_vVel_sd                =  -1.5757790669135E-22
(PID.TID 0000.0001) %MON obc_N_vVel_Int               =   3.2284590660470E+03
(PID.TID 0000.0001) // =======================================================
(PID.TID 0000.0001) // End OBCS MONITOR field statistics
(PID.TID 0000.0001) // =======================================================
 cg2d: Sum(rhs),rhsMax =   4.52013275053937E+00  2.99864233798450E+02
(PID.TID 0000.0001)      cg2d_init_res =   9.72771113979982E-06
(PID.TID 0000.0001)      cg2d_iters(min,last) =      -1      83
(PID.TID 0000.0001)      cg2d_last_res =   9.57717967412651E-12
(PID.TID 0000.0001) // =======================================================
(PID.TID 0000.0001) // Begin MONITOR dynamic field statistics
(PID.TID 0000.0001) // =======================================================
(PID.TID 0000.0001) %MON time_tsnumber                =                   130
(PID.TID 0000.0001) %MON time_secondsf                =   1.3000000000000E+04
(PID.TID 0000.0001) %MON dynstat_eta_max              =   5.7967280689626E+00
(PID.TID 0000.0001) %MON dynstat_eta_min              =  -1.4196091305880E+01
(PID.TID 0000.0001) %MON dynstat_eta_mean             =  -2.5100484146440E+00
(PID.TID 0000.0001) %MON dynstat_eta_sd               =   4.9521057617783E+00
(PID.TID 0000.0001) %MON dynstat_eta_del2             =   2.0714002675397E-01
(PID.TID 0000.0001) %MON dynstat_uvel_max             =   2.3142339255067E-03
(PID.TID 0000.0001) %MON dynstat_uvel_min             =  -2.3608124540502E-03
(PID.TID 0000.0001) %MON dynstat_uvel_mean            =   1.4435851959925E-07
(PID.TID 0000.0001) %MON dynstat_uvel_sd              =   7.4104944369855E-05
(PID.TID 0000.0001) %MON dynstat_uvel_del2            =   3.9517097512495E-07
(PID.TID 0000.0001) %MON dynstat_vvel_max             =   2.8393202595449E-03
(PID.TID 0000.0001) %MON dynstat_vvel_min             =  -2.3074884317742E-03
(PID.TID 0000.0001) %MON dynstat_vvel_mean            =   4.7397334845977E-05
(PID.TID 0000.0001) %MON dynstat_vvel_sd              =   1.3509554992515E-04
(PID.TID 0000.0001) %MON dynstat_vvel_del2            =   6.5153494256906E-07
(PID.TID 0000.0001) %MON dynstat_wvel_max             =   3.1177152281415E-04
(PID.TID 0000.0001) %MON dynstat_wvel_min             =  -3.0691166957108E-04
(PID.TID 0000.0001) %MON dynstat_wvel_mean            =   1.3190759024882E-08
(PID.TID 0000.0001) %MON dynstat_wvel_sd              =   5.0507230134382E-05
(PID.TID 0000.0001) %MON dynstat_wvel_del2            =   2.7723763986088E-07
(PID.TID 0000.0001) %MON dynstat_theta_max            =   1.2000000000000E+00
(PID.TID 0000.0001) %MON dynstat_theta_min            =  -1.0000000000000E+00
(PID.TID 0000.0001) %MON dynstat_theta_mean           =   5.6912457125176E-01
(PID.TID 0000.0001) %MON dynstat_theta_sd             =   8.6859475689492E-01
(PID.TID 0000.0001) %MON dynstat_theta_del2           =   2.3297105572233E-06
(PID.TID 0000.0001) %MON dynstat_salt_max             =   3.4700000000000E+01
(PID.TID 0000.0001) %MON dynstat_salt_min             =   3.4000000000000E+01
(PID.TID 0000.0001) %MON dynstat_salt_mean            =   3.4499263981713E+01
(PID.TID 0000.0001) %MON dynstat_salt_sd              =   2.7637031929477E-01
(PID.TID 0000.0001) %MON dynstat_salt_del2            =   7.3958703251804E-07
(PID.TID 0000.0001) %MON advcfl_uvel_max              =   2.3608124540502E-04
(PID.TID 0000.0001) %MON advcfl_vvel_max              =   2.8393202595449E-04
(PID.TID 0000.0001) %MON advcfl_wvel_max              =   1.5588576140708E-03
(PID.TID 0000.0001) %MON advcfl_W_hf_max              =   1.5588576140708E-03
(PID.TID 0000.0001) %MON pe_b_mean                    =  -8.3159312405690E-01
(PID.TID 0000.0001) %MON ke_max                       =   4.1463102889186E-06
(PID.TID 0000.0001) %MON ke_mean                      =   1.2931119452437E-08
(PID.TID 0000.0001) %MON ke_vol                       =   4.2725506001725E+12
(PID.TID 0000.0001) // =======================================================
(PID.TID 0000.0001) // End MONITOR dynamic field statistics
(PID.TID 0000.0001) // =======================================================
(PID.TID 0000.0001) // =======================================================
(PID.TID 0000.0001) // Begin OBCS MONITOR field statistics
(PID.TID 0000.0001) // =======================================================
(PID.TID 0000.0001) %MON obc_N_vVel_max               =   4.5570384924652E-05
(PID.TID 0000.0001) %MON obc_N_vVel_min               =   4.5570384924652E-05
(PID.TID 0000.0001) %MON obc_N_vVel_mean              =   4.5570384924652E-05
(PID.TID 0000.0001) %MON obc_N_vVel_sd                =  -1.0257039595658E-22
(PID.TID 0000.0001) %MON obc_N_vVel_Int               =   3.0076454050271E+03
(PID.TID 0000.0001) // =======================================================
(PID.TID 0000.0001) // End OBCS MONITOR field statistics
(PID.TID 0000.0001) // =======================================================
 cg2d: Sum(rhs),rhsMax =   4.52021123742622E+00  2.99864290158400E+02
(PID.TID 0000.0001)      cg2d_init_res =   9.79355578250277E-06
(PID.TID 0000.0001)      cg2d_iters(min,last) =      -1      83
(PID.TID 0000.0001)      cg2d_last_res =   9.15422044672900E-12
(PID.TID 0000.0001) // =======================================================
(PID.TID 0000.0001) // Begin MONITOR dynamic field statistics
(PID.TID 0000.0001) // =======================================================
(PID.TID 0000.0001) %MON time_tsnumber                =                   131
(PID.TID 0000.0001) %MON time_secondsf                =   1.3100000000000E+04
(PID.TID 0000.0001) %MON dynstat_eta_max              =   5.7966638088934E+00
(PID.TID 0000.0001) %MON dynstat_eta_min              =  -1.4196153573459E+01
(PID.TID 0000.0001) %MON dynstat_eta_mean             =  -2.5100924705127E+00
(PID.TID 0000.0001) %MON dynstat_eta_sd               =   4.9521162127200E+00
(PID.TID 0000.0001) %MON dynstat_eta_del2             =   2.0714002865817E-01
(PID.TID 0000.0001) %MON dynstat_uvel_max             =   2.3268163700045E-03
(PID.TID 0000.0001) %MON dynstat_uvel_min             =  -2.3747678952155E-03
(PID.TID 0000.0001) %MON dynstat_uvel_mean            =   1.7274934702533E-07
(PID.TID 0000.0001) %MON dynstat_uvel_sd              =   7.4330463186319E-05
(PID.TID 0000.0001) %MON dynstat_uvel_del2            =   3.9575799858490E-07
(PID.TID 0000.0001) %MON dynstat_vvel_max             =   2.8530637054409E-03
(PID.TID 0000.0001) %MON dynstat_vvel_min             =  -2.3304509326980E-03
(PID.TID 0000.0001) %MON dynstat_vvel_mean            =   4.2200526690036E-05
(PID.TID 0000.0001) %MON dynstat_vvel_sd              =   1.3501975544605E-04
(PID.TID 0000.0001) %MON dynstat_vvel_del2            =   6.5003626912699E-07
(PID.TID 0000.0001) %MON dynstat_wvel_max             =   2.7861466403071E-04
(PID.TID 0000.0001) %MON dynstat_wvel_min             =  -3.2529995622875E-04
(PID.TID 0000.0001) %MON dynstat_wvel_mean            =   1.2313390045957E-09
(PID.TID 0000.0001) %MON dynstat_wvel_sd              =   5.0372489599020E-05
(PID.TID 0000.0001) %MON dynstat_wvel_del2            =   2.7568298812050E-07
(PID.TID 0000.0001) %MON dynstat_theta_max            =   1.2000000000000E+00
(PID.TID 0000.0001) %MON dynstat_theta_min            =  -1.0000000000000E+00
(PID.TID 0000.0001) %MON dynstat_theta_mean           =   5.6912432647755E-01
(PID.TID 0000.0001) %MON dynstat_theta_sd             =   8.6859461803669E-01
(PID.TID 0000.0001) %MON dynstat_theta_del2           =   2.3177627284732E-06
(PID.TID 0000.0001) %MON dynstat_salt_max             =   3.4700000000000E+01
(PID.TID 0000.0001) %MON dynstat_salt_min             =   3.4000000000000E+01
(PID.TID 0000.0001) %MON dynstat_salt_mean            =   3.4499263882790E+01
(PID.TID 0000.0001) %MON dynstat_salt_sd              =   2.7637026946744E-01
(PID.TID 0000.0001) %MON dynstat_salt_del2            =   7.3578346048594E-07
(PID.TID 0000.0001) %MON advcfl_uvel_max              =   2.3747678952155E-04
(PID.TID 0000.0001) %MON advcfl_vvel_max              =   2.8530637054409E-04
(PID.TID 0000.0001) %MON advcfl_wvel_max              =   1.6264997811437E-03
(PID.TID 0000.0001) %MON advcfl_W_hf_max              =   1.6264997811437E-03
(PID.TID 0000.0001) %MON pe_b_mean                    =  -8.3160376094405E-01
(PID.TID 0000.0001) %MON ke_max                       =   4.1880578752603E-06
(PID.TID 0000.0001) %MON ke_mean                      =   1.2705832767561E-08
(PID.TID 0000.0001) %MON ke_vol                       =   4.2725503124170E+12
(PID.TID 0000.0001) // =======================================================
(PID.TID 0000.0001) // End MONITOR dynamic field statistics
(PID.TID 0000.0001) // =======================================================
(PID.TID 0000.0001) // =======================================================
(PID.TID 0000.0001) // Begin OBCS MONITOR field statistics
(PID.TID 0000.0001) // =======================================================
(PID.TID 0000.0001) %MON obc_N_vVel_max               =   4.1621434844247E-05
(PID.TID 0000.0001) %MON obc_N_vVel_min               =   4.1621434844245E-05
(PID.TID 0000.0001) %MON obc_N_vVel_mean              =   4.1621434844247E-05
(PID.TID 0000.0001) %MON obc_N_vVel_sd                =  -4.8390065834352E-23
(PID.TID 0000.0001) %MON obc_N_vVel_Int               =   2.7470146997203E+03
(PID.TID 0000.0001) // =======================================================
(PID.TID 0000.0001) // End OBCS MONITOR field statistics
(PID.TID 0000.0001) // =======================================================
 cg2d: Sum(rhs),rhsMax =   4.52028086116250E+00  2.99864349312022E+02
(PID.TID 0000.0001)      cg2d_init_res =   9.82960165767926E-06
(PID.TID 0000.0001)      cg2d_iters(min,last) =      -1      82
(PID.TID 0000.0001)      cg2d_last_res =   9.14694579820744E-12
(PID.TID 0000.0001) // =======================================================
(PID.TID 0000.0001) // Begin MONITOR dynamic field statistics
(PID.TID 0000.0001) // =======================================================
(PID.TID 0000.0001) %MON time_tsnumber                =                   132
(PID.TID 0000.0001) %MON time_secondsf                =   1.3200000000000E+04
(PID.TID 0000.0001) %MON dynstat_eta_max              =   5.7966074555636E+00
(PID.TID 0000.0001) %MON dynstat_eta_min              =  -1.4196211601172E+01
(PID.TID 0000.0001) %MON dynstat_eta_mean             =  -2.5101316280372E+00
(PID.TID 0000.0001) %MON dynstat_eta_sd               =   4.9521247465295E+00
(PID.TID 0000.0001) %MON dynstat_eta_del2             =   2.0714003060192E-01
(PID.TID 0000.0001) %MON dynstat_uvel_max             =   2.3391561134076E-03
(PID.TID 0000.0001) %MON dynstat_uvel_min             =  -2.3885369533367E-03
(PID.TID 0000.0001) %MON dynstat_uvel_mean            =   1.9104362640530E-07
(PID.TID 0000.0001) %MON dynstat_uvel_sd              =   7.4551203501737E-05
(PID.TID 0000.0001) %MON dynstat_uvel_del2            =   3.9630940757117E-07
(PID.TID 0000.0001) %MON dynstat_vvel_max             =   2.8662614717785E-03
(PID.TID 0000.0001) %MON dynstat_vvel_min             =  -2.3536150259345E-03
(PID.TID 0000.0001) %MON dynstat_vvel_mean            =   3.6615461141503E-05
(PID.TID 0000.0001) %MON dynstat_vvel_sd              =   1.3489924877523E-04
(PID.TID 0000.0001) %MON dynstat_vvel_del2            =   6.4767190249984E-07
(PID.TID 0000.0001) %MON dynstat_wvel_max             =   2.9479824943066E-04
(PID.TID 0000.0001) %MON dynstat_wvel_min             =  -3.3763620824594E-04
(PID.TID 0000.0001) %MON dynstat_wvel_mean            =  -9.8150392082850E-09
(PID.TID 0000.0001) %MON dynstat_wvel_sd              =   5.0175538962209E-05
(PID.TID 0000.0001) %MON dynstat_wvel_del2            =   2.7331331364925E-07
(PID.TID 0000.0001) %MON dynstat_theta_max            =   1.2000000000000E+00
(PID.TID 0000.0001) %MON dynstat_theta_min            =  -1.0000000000000E+00
(PID.TID 0000.0001) %MON dynstat_theta_mean           =   5.6912407960508E-01
(PID.TID 0000.0001) %MON dynstat_theta_sd             =   8.6859448009337E-01
(PID.TID 0000.0001) %MON dynstat_theta_del2           =   2.3065259083018E-06
(PID.TID 0000.0001) %MON dynstat_salt_max             =   3.4700000000000E+01
(PID.TID 0000.0001) %MON dynstat_salt_min             =   3.4000000000000E+01
(PID.TID 0000.0001) %MON dynstat_salt_mean            =   3.4499263783199E+01
(PID.TID 0000.0001) %MON dynstat_salt_sd              =   2.7637021993079E-01
(PID.TID 0000.0001) %MON dynstat_salt_del2            =   7.3220686471159E-07
(PID.TID 0000.0001) %MON advcfl_uvel_max              =   2.3885369533367E-04
(PID.TID 0000.0001) %MON advcfl_vvel_max              =   2.8662614717785E-04
(PID.TID 0000.0001) %MON advcfl_wvel_max              =   1.6881810412297E-03
(PID.TID 0000.0001) %MON advcfl_W_hf_max              =   1.6881810412297E-03
(PID.TID 0000.0001) %MON pe_b_mean                    =  -8.3161297806122E-01
(PID.TID 0000.0001) %MON ke_max                       =   4.2291675887867E-06
(PID.TID 0000.0001) %MON ke_mean                      =   1.2486945757253E-08
(PID.TID 0000.0001) %MON ke_vol                       =   4.2725500507252E+12
(PID.TID 0000.0001) // =======================================================
(PID.TID 0000.0001) // End MONITOR dynamic field statistics
(PID.TID 0000.0001) // =======================================================
(PID.TID 0000.0001) // =======================================================
(PID.TID 0000.0001) // Begin OBCS MONITOR field statistics
(PID.TID 0000.0001) // =======================================================
(PID.TID 0000.0001) %MON obc_N_vVel_max               =   3.7213003527901E-05
(PID.TID 0000.0001) %MON obc_N_vVel_min               =   3.7213003527900E-05
(PID.TID 0000.0001) %MON obc_N_vVel_mean              =   3.7213003527900E-05
(PID.TID 0000.0001) %MON obc_N_vVel_sd                =   8.5439270278839E-12
(PID.TID 0000.0001) %MON obc_N_vVel_Int               =   2.4560582328414E+03
(PID.TID 0000.0001) // =======================================================
(PID.TID 0000.0001) // End OBCS MONITOR field statistics
(PID.TID 0000.0001) // =======================================================
 cg2d: Sum(rhs),rhsMax =   4.52034099462460E+00  2.99864411347116E+02
(PID.TID 0000.0001)      cg2d_init_res =   9.83820277818709E-06
(PID.TID 0000.0001)      cg2d_iters(min,last) =      -1      82
(PID.TID 0000.0001)      cg2d_last_res =   7.82451115099273E-12
(PID.TID 0000.0001) // =======================================================
(PID.TID 0000.0001) // Begin MONITOR dynamic field statistics
(PID.TID 0000.0001) // =======================================================
(PID.TID 0000.0001) %MON time_tsnumber                =                   133
(PID.TID 0000.0001) %MON time_secondsf                =   1.3300000000000E+04
(PID.TID 0000.0001) %MON dynstat_eta_max              =   5.7965593158148E+00
(PID.TID 0000.0001) %MON dynstat_eta_min              =  -1.4196265004551E+01
(PID.TID 0000.0001) %MON dynstat_eta_mean             =  -2.5101655397062E+00
(PID.TID 0000.0001) %MON dynstat_eta_sd               =   4.9521313833168E+00
(PID.TID 0000.0001) %MON dynstat_eta_del2             =   2.0714003257909E-01
(PID.TID 0000.0001) %MON dynstat_uvel_max             =   2.3512562667278E-03
(PID.TID 0000.0001) %MON dynstat_uvel_min             =  -2.4021236379106E-03
(PID.TID 0000.0001) %MON dynstat_uvel_mean            =   1.9957455105482E-07
(PID.TID 0000.0001) %MON dynstat_uvel_sd              =   7.4767082384751E-05
(PID.TID 0000.0001) %MON dynstat_uvel_del2            =   3.9682571459549E-07
(PID.TID 0000.0001) %MON dynstat_vvel_max             =   2.8791365006491E-03
(PID.TID 0000.0001) %MON dynstat_vvel_min             =  -2.3767608869800E-03
(PID.TID 0000.0001) %MON dynstat_vvel_mean            =   3.0815503897315E-05
(PID.TID 0000.0001) %MON dynstat_vvel_sd              =   1.3474581899451E-04
(PID.TID 0000.0001) %MON dynstat_vvel_del2            =   6.4471556716915E-07
(PID.TID 0000.0001) %MON dynstat_wvel_max             =   3.1509220962699E-04
(PID.TID 0000.0001) %MON dynstat_wvel_min             =  -3.4566019849781E-04
(PID.TID 0000.0001) %MON dynstat_wvel_mean            =  -1.9714132093289E-08
(PID.TID 0000.0001) %MON dynstat_wvel_sd              =   4.9929240200765E-05
(PID.TID 0000.0001) %MON dynstat_wvel_del2            =   2.7035210383974E-07
(PID.TID 0000.0001) %MON dynstat_theta_max            =   1.2000000000000E+00
(PID.TID 0000.0001) %MON dynstat_theta_min            =  -1.0000000000000E+00
(PID.TID 0000.0001) %MON dynstat_theta_mean           =   5.6912383052446E-01
(PID.TID 0000.0001) %MON dynstat_theta_sd             =   8.6859434314421E-01
(PID.TID 0000.0001) %MON dynstat_theta_del2           =   2.2958006119005E-06
(PID.TID 0000.0001) %MON dynstat_salt_max             =   3.4700000000000E+01
(PID.TID 0000.0001) %MON dynstat_salt_min             =   3.4000000000000E+01
(PID.TID 0000.0001) %MON dynstat_salt_mean            =   3.4499263682904E+01
(PID.TID 0000.0001) %MON dynstat_salt_sd              =   2.7637017070999E-01
(PID.TID 0000.0001) %MON dynstat_salt_del2            =   7.2879382544774E-07
(PID.TID 0000.0001) %MON advcfl_uvel_max              =   2.4021236379106E-04
(PID.TID 0000.0001) %MON advcfl_vvel_max              =   2.8791365006491E-04
(PID.TID 0000.0001) %MON advcfl_wvel_max              =   1.7283009924891E-03
(PID.TID 0000.0001) %MON advcfl_W_hf_max              =   1.7283009924891E-03
(PID.TID 0000.0001) %MON pe_b_mean                    =  -8.3162073089497E-01
(PID.TID 0000.0001) %MON ke_max                       =   4.2696832197514E-06
(PID.TID 0000.0001) %MON ke_mean                      =   1.2287801185652E-08
(PID.TID 0000.0001) %MON ke_vol                       =   4.2725498181295E+12
(PID.TID 0000.0001) // =======================================================
(PID.TID 0000.0001) // End MONITOR dynamic field statistics
(PID.TID 0000.0001) // =======================================================
(PID.TID 0000.0001) // =======================================================
(PID.TID 0000.0001) // Begin OBCS MONITOR field statistics
(PID.TID 0000.0001) // =======================================================
(PID.TID 0000.0001) %MON obc_N_vVel_max               =   3.2491809730977E-05
(PID.TID 0000.0001) %MON obc_N_vVel_min               =   3.2491809730977E-05
(PID.TID 0000.0001) %MON obc_N_vVel_mean              =   3.2491809730977E-05
(PID.TID 0000.0001) %MON obc_N_vVel_sd                =   4.5246790118955E-12
(PID.TID 0000.0001) %MON obc_N_vVel_Int               =   2.1444594422445E+03
(PID.TID 0000.0001) // =======================================================
(PID.TID 0000.0001) // End OBCS MONITOR field statistics
(PID.TID 0000.0001) // =======================================================
 cg2d: Sum(rhs),rhsMax =   4.52039130318514E+00  2.99864476265310E+02
(PID.TID 0000.0001)      cg2d_init_res =   9.82375463216125E-06
(PID.TID 0000.0001)      cg2d_iters(min,last) =      -1      81
(PID.TID 0000.0001)      cg2d_last_res =   9.23198818722293E-12
(PID.TID 0000.0001) // =======================================================
(PID.TID 0000.0001) // Begin MONITOR dynamic field statistics
(PID.TID 0000.0001) // =======================================================
(PID.TID 0000.0001) %MON time_tsnumber                =                   134
(PID.TID 0000.0001) %MON time_secondsf                =   1.3400000000000E+04
(PID.TID 0000.0001) %MON dynstat_eta_max              =   5.7965194589658E+00
(PID.TID 0000.0001) %MON dynstat_eta_min              =  -1.4196313545162E+01
(PID.TID 0000.0001) %MON dynstat_eta_mean             =  -2.5101940197109E+00
(PID.TID 0000.0001) %MON dynstat_eta_sd               =   4.9521361922924E+00
(PID.TID 0000.0001) %MON dynstat_eta_del2             =   2.0714003458338E-01
(PID.TID 0000.0001) %MON dynstat_uvel_max             =   2.3631203438832E-03
(PID.TID 0000.0001) %MON dynstat_uvel_min             =  -2.4155316859229E-03
(PID.TID 0000.0001) %MON dynstat_uvel_mean            =   1.9894584524511E-07
(PID.TID 0000.0001) %MON dynstat_uvel_sd              =   7.4978062424110E-05
(PID.TID 0000.0001) %MON dynstat_uvel_del2            =   3.9730740375973E-07
(PID.TID 0000.0001) %MON dynstat_vvel_max             =   2.8919014968114E-03
(PID.TID 0000.0001) %MON dynstat_vvel_min             =  -2.3996789174729E-03
(PID.TID 0000.0001) %MON dynstat_vvel_mean            =   2.4968522493507E-05
(PID.TID 0000.0001) %MON dynstat_vvel_sd              =   1.3457497271119E-04
(PID.TID 0000.0001) %MON dynstat_vvel_del2            =   6.4149998920698E-07
(PID.TID 0000.0001) %MON dynstat_wvel_max             =   3.3017656512668E-04
(PID.TID 0000.0001) %MON dynstat_wvel_min             =  -3.5265345374461E-04
(PID.TID 0000.0001) %MON dynstat_wvel_mean            =  -2.8277199951395E-08
(PID.TID 0000.0001) %MON dynstat_wvel_sd              =   4.9652413702821E-05
(PID.TID 0000.0001) %MON dynstat_wvel_del2            =   2.6709236358989E-07
(PID.TID 0000.0001) %MON dynstat_theta_max            =   1.2000000000000E+00
(PID.TID 0000.0001) %MON dynstat_theta_min            =  -1.0000000000000E+00
(PID.TID 0000.0001) %MON dynstat_theta_mean           =   5.6912357919075E-01
(PID.TID 0000.0001) %MON dynstat_theta_sd             =   8.6859420727429E-01
(PID.TID 0000.0001) %MON dynstat_theta_del2           =   2.2853448321935E-06
(PID.TID 0000.0001) %MON dynstat_salt_max             =   3.4700000000000E+01
(PID.TID 0000.0001) %MON dynstat_salt_min             =   3.4000000000000E+01
(PID.TID 0000.0001) %MON dynstat_salt_mean            =   3.4499263581892E+01
(PID.TID 0000.0001) %MON dynstat_salt_sd              =   2.7637012183180E-01
(PID.TID 0000.0001) %MON dynstat_salt_del2            =   7.2546741447171E-07
(PID.TID 0000.0001) %MON advcfl_uvel_max              =   2.4155316859229E-04
(PID.TID 0000.0001) %MON advcfl_vvel_max              =   2.8919014968114E-04
(PID.TID 0000.0001) %MON advcfl_wvel_max              =   1.7632672687230E-03
(PID.TID 0000.0001) %MON advcfl_W_hf_max              =   1.7632672687230E-03
(PID.TID 0000.0001) %MON pe_b_mean                    =  -8.3162701667728E-01
(PID.TID 0000.0001) %MON ke_max                       =   4.3096469335116E-06
(PID.TID 0000.0001) %MON ke_mean                      =   1.2118345286589E-08
(PID.TID 0000.0001) %MON ke_vol                       =   4.2725496166941E+12
(PID.TID 0000.0001) // =======================================================
(PID.TID 0000.0001) // End MONITOR dynamic field statistics
(PID.TID 0000.0001) // =======================================================
(PID.TID 0000.0001) // =======================================================
(PID.TID 0000.0001) // Begin OBCS MONITOR field statistics
(PID.TID 0000.0001) // =======================================================
(PID.TID 0000.0001) %MON obc_N_vVel_max               =   2.7603390209271E-05
(PID.TID 0000.0001) %MON obc_N_vVel_min               =   2.7603390209270E-05
(PID.TID 0000.0001) %MON obc_N_vVel_mean              =   2.7603390209271E-05
(PID.TID 0000.0001) %MON obc_N_vVel_sd                =  -7.2378303598390E-25
(PID.TID 0000.0001) %MON obc_N_vVel_Int               =   1.8218237538119E+03
(PID.TID 0000.0001) // =======================================================
(PID.TID 0000.0001) // End OBCS MONITOR field statistics
(PID.TID 0000.0001) // =======================================================
 cg2d: Sum(rhs),rhsMax =   4.52043173469737E+00  2.99864543987886E+02
(PID.TID 0000.0001)      cg2d_init_res =   9.79202509265549E-06
(PID.TID 0000.0001)      cg2d_iters(min,last) =      -1      80
(PID.TID 0000.0001)      cg2d_last_res =   8.37938392510901E-12
(PID.TID 0000.0001) // =======================================================
(PID.TID 0000.0001) // Begin MONITOR dynamic field statistics
(PID.TID 0000.0001) // =======================================================
(PID.TID 0000.0001) %MON time_tsnumber                =                   135
(PID.TID 0000.0001) %MON time_secondsf                =   1.3500000000000E+04
(PID.TID 0000.0001) %MON dynstat_eta_max              =   5.7964877268907E+00
(PID.TID 0000.0001) %MON dynstat_eta_min              =  -1.4196357127468E+01
(PID.TID 0000.0001) %MON dynstat_eta_mean             =  -2.5102170384322E+00
(PID.TID 0000.0001) %MON dynstat_eta_sd               =   4.9521392867340E+00
(PID.TID 0000.0001) %MON dynstat_eta_del2             =   2.0714003660852E-01
(PID.TID 0000.0001) %MON dynstat_uvel_max             =   2.3747520192714E-03
(PID.TID 0000.0001) %MON dynstat_uvel_min             =  -2.4291983734344E-03
(PID.TID 0000.0001) %MON dynstat_uvel_mean            =   1.8997018669636E-07
(PID.TID 0000.0001) %MON dynstat_uvel_sd              =   7.5184150042951E-05
(PID.TID 0000.0001) %MON dynstat_uvel_del2            =   3.9775493377235E-07
(PID.TID 0000.0001) %MON dynstat_vvel_max             =   2.9047539805340E-03
(PID.TID 0000.0001) %MON dynstat_vvel_min             =  -2.4221745395048E-03
(PID.TID 0000.0001) %MON dynstat_vvel_mean            =   1.9232781896985E-05
(PID.TID 0000.0001) %MON dynstat_vvel_sd              =   1.3440398313952E-04
(PID.TID 0000.0001) %MON dynstat_vvel_del2            =   6.3837564423607E-07
(PID.TID 0000.0001) %MON dynstat_wvel_max             =   3.3970524981322E-04
(PID.TID 0000.0001) %MON dynstat_wvel_min             =  -3.5158770385983E-04
(PID.TID 0000.0001) %MON dynstat_wvel_mean            =  -3.5363222893687E-08
(PID.TID 0000.0001) %MON dynstat_wvel_sd              =   4.9367319572371E-05
(PID.TID 0000.0001) %MON dynstat_wvel_del2            =   2.6386213269209E-07
(PID.TID 0000.0001) %MON dynstat_theta_max            =   1.2000000000000E+00
(PID.TID 0000.0001) %MON dynstat_theta_min            =  -1.0000000000000E+00
(PID.TID 0000.0001) %MON dynstat_theta_mean           =   5.6912332562178E-01
(PID.TID 0000.0001) %MON dynstat_theta_sd             =   8.6859407253328E-01
(PID.TID 0000.0001) %MON dynstat_theta_del2           =   2.2749057010760E-06
(PID.TID 0000.0001) %MON dynstat_salt_max             =   3.4700000000000E+01
(PID.TID 0000.0001) %MON dynstat_salt_min             =   3.4000000000000E+01
(PID.TID 0000.0001) %MON dynstat_salt_mean            =   3.4499263480168E+01
(PID.TID 0000.0001) %MON dynstat_salt_sd              =   2.7637007331210E-01
(PID.TID 0000.0001) %MON dynstat_salt_del2            =   7.2214726661614E-07
(PID.TID 0000.0001) %MON advcfl_uvel_max              =   2.4291983734344E-04
(PID.TID 0000.0001) %MON advcfl_vvel_max              =   2.9047539805340E-04
(PID.TID 0000.0001) %MON advcfl_wvel_max              =   1.7579385192991E-03
(PID.TID 0000.0001) %MON advcfl_W_hf_max              =   1.7579385192991E-03
(PID.TID 0000.0001) %MON pe_b_mean                    =  -8.3163187176202E-01
(PID.TID 0000.0001) %MON ke_max                       =   4.3490978857481E-06
(PID.TID 0000.0001) %MON ke_mean                      =   1.1984718185160E-08
(PID.TID 0000.0001) %MON ke_vol                       =   4.2725494475229E+12
(PID.TID 0000.0001) // =======================================================
(PID.TID 0000.0001) // End MONITOR dynamic field statistics
(PID.TID 0000.0001) // =======================================================
(PID.TID 0000.0001) // =======================================================
(PID.TID 0000.0001) // Begin OBCS MONITOR field statistics
(PID.TID 0000.0001) // =======================================================
(PID.TID 0000.0001) %MON obc_N_vVel_max               =   2.2688312621552E-05
(PID.TID 0000.0001) %MON obc_N_vVel_min               =   2.2688312621551E-05
(PID.TID 0000.0001) %MON obc_N_vVel_mean              =   2.2688312621551E-05
(PID.TID 0000.0001) %MON obc_N_vVel_sd                =   2.0336919783402E-12
(PID.TID 0000.0001) %MON obc_N_vVel_Int               =   1.4974286330224E+03
(PID.TID 0000.0001) // =======================================================
(PID.TID 0000.0001) // End OBCS MONITOR field statistics
(PID.TID 0000.0001) // =======================================================
 cg2d: Sum(rhs),rhsMax =   4.52046250256302E+00  2.99864614363902E+02
(PID.TID 0000.0001)      cg2d_init_res =   9.74929153377281E-06
(PID.TID 0000.0001)      cg2d_iters(min,last) =      -1      80
(PID.TID 0000.0001)      cg2d_last_res =   8.12668756364129E-12
(PID.TID 0000.0001) // =======================================================
(PID.TID 0000.0001) // Begin MONITOR dynamic field statistics
(PID.TID 0000.0001) // =======================================================
(PID.TID 0000.0001) %MON time_tsnumber                =                   136
(PID.TID 0000.0001) %MON time_secondsf                =   1.3600000000000E+04
(PID.TID 0000.0001) %MON dynstat_eta_max              =   5.7964637610651E+00
(PID.TID 0000.0001) %MON dynstat_eta_min              =  -1.4196395795287E+01
(PID.TID 0000.0001) %MON dynstat_eta_mean             =  -2.5102347131065E+00
(PID.TID 0000.0001) %MON dynstat_eta_sd               =   4.9521408181319E+00
(PID.TID 0000.0001) %MON dynstat_eta_del2             =   2.0714003864765E-01
(PID.TID 0000.0001) %MON dynstat_uvel_max             =   2.3861550247588E-03
(PID.TID 0000.0001) %MON dynstat_uvel_min             =  -2.4430059052030E-03
(PID.TID 0000.0001) %MON dynstat_uvel_mean            =   1.7360945866651E-07
(PID.TID 0000.0001) %MON dynstat_uvel_sd              =   7.5385396658773E-05
(PID.TID 0000.0001) %MON dynstat_uvel_del2            =   3.9816875001607E-07
(PID.TID 0000.0001) %MON dynstat_vvel_max             =   2.9178719425378E-03
(PID.TID 0000.0001) %MON dynstat_vvel_min             =  -2.4440725729020E-03
(PID.TID 0000.0001) %MON dynstat_vvel_mean            =   1.3753355236408E-05
(PID.TID 0000.0001) %MON dynstat_vvel_sd              =   1.3424973374699E-04
(PID.TID 0000.0001) %MON dynstat_vvel_del2            =   6.3566724664242E-07
(PID.TID 0000.0001) %MON dynstat_wvel_max             =   3.4343206876360E-04
(PID.TID 0000.0001) %MON dynstat_wvel_min             =  -3.4257602498893E-04
(PID.TID 0000.0001) %MON dynstat_wvel_mean            =  -4.0879279894315E-08
(PID.TID 0000.0001) %MON dynstat_wvel_sd              =   4.9096733157103E-05
(PID.TID 0000.0001) %MON dynstat_wvel_del2            =   2.6098368614894E-07
(PID.TID 0000.0001) %MON dynstat_theta_max            =   1.2000000000000E+00
(PID.TID 0000.0001) %MON dynstat_theta_min            =  -1.0000000000000E+00
(PID.TID 0000.0001) %MON dynstat_theta_mean           =   5.6912306989336E-01
(PID.TID 0000.0001) %MON dynstat_theta_sd             =   8.6859393876231E-01
(PID.TID 0000.0001) %MON dynstat_theta_del2           =   2.2642506238310E-06
(PID.TID 0000.0001) %MON dynstat_salt_max             =   3.4700000000000E+01
(PID.TID 0000.0001) %MON dynstat_salt_min             =   3.4000000000000E+01
(PID.TID 0000.0001) %MON dynstat_salt_mean            =   3.4499263377756E+01
(PID.TID 0000.0001) %MON dynstat_salt_sd              =   2.7637002510010E-01
(PID.TID 0000.0001) %MON dynstat_salt_del2            =   7.1875948125481E-07
(PID.TID 0000.0001) %MON advcfl_uvel_max              =   2.4430059052030E-04
(PID.TID 0000.0001) %MON advcfl_vvel_max              =   2.9178719425378E-04
(PID.TID 0000.0001) %MON advcfl_wvel_max              =   1.7171603438180E-03
(PID.TID 0000.0001) %MON advcfl_W_hf_max              =   1.7171603438180E-03
(PID.TID 0000.0001) %MON pe_b_mean                    =  -8.3163536813173E-01
(PID.TID 0000.0001) %MON ke_max                       =   4.3880713844410E-06
(PID.TID 0000.0001) %MON ke_mean                      =   1.1889236779775E-08
(PID.TID 0000.0001) %MON ke_vol                       =   4.2725493107917E+12
(PID.TID 0000.0001) // =======================================================
(PID.TID 0000.0001) // End MONITOR dynamic field statistics
(PID.TID 0000.0001) // =======================================================
(PID.TID 0000.0001) // =======================================================
(PID.TID 0000.0001) // Begin OBCS MONITOR field statistics
(PID.TID 0000.0001) // =======================================================
(PID.TID 0000.0001) %MON obc_N_vVel_max               =   1.7878746668446E-05
(PID.TID 0000.0001) %MON obc_N_vVel_min               =   1.7878746668446E-05
(PID.TID 0000.0001) %MON obc_N_vVel_mean              =   1.7878746668446E-05
(PID.TID 0000.0001) %MON obc_N_vVel_sd                =  -1.4837552237670E-23
(PID.TID 0000.0001) %MON obc_N_vVel_Int               =   1.1799972801175E+03
(PID.TID 0000.0001) // =======================================================
(PID.TID 0000.0001) // End OBCS MONITOR field statistics
(PID.TID 0000.0001) // =======================================================
 cg2d: Sum(rhs),rhsMax =   4.52048406287919E+00  2.99864687180710E+02
(PID.TID 0000.0001)      cg2d_init_res =   9.70199535362904E-06
(PID.TID 0000.0001)      cg2d_iters(min,last) =      -1      80
(PID.TID 0000.0001)      cg2d_last_res =   9.35536692927374E-12
(PID.TID 0000.0001) // =======================================================
(PID.TID 0000.0001) // Begin MONITOR dynamic field statistics
(PID.TID 0000.0001) // =======================================================
(PID.TID 0000.0001) %MON time_tsnumber                =                   137
(PID.TID 0000.0001) %MON time_secondsf                =   1.3700000000000E+04
(PID.TID 0000.0001) %MON dynstat_eta_max              =   5.7964470185979E+00
(PID.TID 0000.0001) %MON dynstat_eta_min              =  -1.4196429718765E+01
(PID.TID 0000.0001) %MON dynstat_eta_mean             =  -2.5102472952234E+00
(PID.TID 0000.0001) %MON dynstat_eta_sd               =   4.9521409696597E+00
(PID.TID 0000.0001) %MON dynstat_eta_del2             =   2.0714004069380E-01
(PID.TID 0000.0001) %MON dynstat_uvel_max             =   2.3973329613440E-03
(PID.TID 0000.0001) %MON dynstat_uvel_min             =  -2.4566373388168E-03
(PID.TID 0000.0001) %MON dynstat_uvel_mean            =   1.5091929543744E-07
(PID.TID 0000.0001) %MON dynstat_uvel_sd              =   7.5581899810637E-05
(PID.TID 0000.0001) %MON dynstat_uvel_del2            =   3.9854929363424E-07
(PID.TID 0000.0001) %MON dynstat_vvel_max             =   2.9314104340425E-03
(PID.TID 0000.0001) %MON dynstat_vvel_min             =  -2.4652205746163E-03
(PID.TID 0000.0001) %MON dynstat_vvel_mean            =   8.6591232694033E-06
(PID.TID 0000.0001) %MON dynstat_vvel_sd              =   1.3412662335649E-04
(PID.TID 0000.0001) %MON dynstat_vvel_del2            =   6.3363331669473E-07
(PID.TID 0000.0001) %MON dynstat_wvel_max             =   3.5062277629656E-04
(PID.TID 0000.0001) %MON dynstat_wvel_min             =  -3.2591893958021E-04
(PID.TID 0000.0001) %MON dynstat_wvel_mean            =  -4.4780417156221E-08
(PID.TID 0000.0001) %MON dynstat_wvel_sd              =   4.8860949947785E-05
(PID.TID 0000.0001) %MON dynstat_wvel_del2            =   2.5873058270709E-07
(PID.TID 0000.0001) %MON dynstat_theta_max            =   1.2000000000000E+00
(PID.TID 0000.0001) %MON dynstat_theta_min            =  -1.0000000000000E+00
(PID.TID 0000.0001) %MON dynstat_theta_mean           =   5.6912281213332E-01
(PID.TID 0000.0001) %MON dynstat_theta_sd             =   8.6859380572911E-01
(PID.TID 0000.0001) %MON dynstat_theta_del2           =   2.2531962133306E-06
(PID.TID 0000.0001) %MON dynstat_salt_max             =   3.4700000000000E+01
(PID.TID 0000.0001) %MON dynstat_salt_min             =   3.4000000000000E+01
(PID.TID 0000.0001) %MON dynstat_salt_mean            =   3.4499263274696E+01
(PID.TID 0000.0001) %MON dynstat_salt_sd              =   2.7636997712196E-01
(PID.TID 0000.0001) %MON dynstat_salt_del2            =   7.1524580879601E-07
(PID.TID 0000.0001) %MON advcfl_uvel_max              =   2.4566373388168E-04
(PID.TID 0000.0001) %MON advcfl_vvel_max              =   2.9314104340425E-04
(PID.TID 0000.0001) %MON advcfl_wvel_max              =   1.7531138814828E-03
(PID.TID 0000.0001) %MON advcfl_W_hf_max              =   1.7531138814828E-03
(PID.TID 0000.0001) %MON pe_b_mean                    =  -8.3163760917613E-01
(PID.TID 0000.0001) %MON ke_max                       =   4.4265980656233E-06
(PID.TID 0000.0001) %MON ke_mean                      =   1.1830723198264E-08
(PID.TID 0000.0001) %MON ke_vol                       =   4.2725492058041E+12
(PID.TID 0000.0001) // =======================================================
(PID.TID 0000.0001) // End MONITOR dynamic field statistics
(PID.TID 0000.0001) // =======================================================
(PID.TID 0000.0001) // =======================================================
(PID.TID 0000.0001) // Begin OBCS MONITOR field statistics
(PID.TID 0000.0001) // =======================================================
(PID.TID 0000.0001) %MON obc_N_vVel_max               =   1.3295520535566E-05
(PID.TID 0000.0001) %MON obc_N_vVel_min               =   1.3295520535566E-05
(PID.TID 0000.0001) %MON obc_N_vVel_mean              =   1.3295520535566E-05
(PID.TID 0000.0001) %MON obc_N_vVel_sd                =  -5.2732764050256E-24
(PID.TID 0000.0001) %MON obc_N_vVel_Int               =   8.7750435534739E+02
(PID.TID 0000.0001) // =======================================================
(PID.TID 0000.0001) // End OBCS MONITOR field statistics
(PID.TID 0000.0001) // =======================================================
 cg2d: Sum(rhs),rhsMax =   4.52049708655123E+00  2.99864762175609E+02
(PID.TID 0000.0001)      cg2d_init_res =   9.65519880915492E-06
(PID.TID 0000.0001)      cg2d_iters(min,last) =      -1      80
(PID.TID 0000.0001)      cg2d_last_res =   9.87243785467285E-12
(PID.TID 0000.0001) // =======================================================
(PID.TID 0000.0001) // Begin MONITOR dynamic field statistics
(PID.TID 0000.0001) // =======================================================
(PID.TID 0000.0001) %MON time_tsnumber                =                   138
(PID.TID 0000.0001) %MON time_secondsf                =   1.3800000000000E+04
(PID.TID 0000.0001) %MON dynstat_eta_max              =   5.7964368004926E+00
(PID.TID 0000.0001) %MON dynstat_eta_min              =  -1.4196459182556E+01
(PID.TID 0000.0001) %MON dynstat_eta_mean             =  -2.5102551551374E+00
(PID.TID 0000.0001) %MON dynstat_eta_sd               =   4.9521399492743E+00
(PID.TID 0000.0001) %MON dynstat_eta_del2             =   2.0714004274024E-01
(PID.TID 0000.0001) %MON dynstat_uvel_max             =   2.4082892189767E-03
(PID.TID 0000.0001) %MON dynstat_uvel_min             =  -2.4700916487461E-03
(PID.TID 0000.0001) %MON dynstat_uvel_mean            =   1.2300598592312E-07
(PID.TID 0000.0001) %MON dynstat_uvel_sd              =   7.5773806747213E-05
(PID.TID 0000.0001) %MON dynstat_uvel_del2            =   3.9889701053709E-07
(PID.TID 0000.0001) %MON dynstat_vvel_max             =   2.9454989733289E-03
(PID.TID 0000.0001) %MON dynstat_vvel_min             =  -2.4854914255457E-03
(PID.TID 0000.0001) %MON dynstat_vvel_mean            =   4.0603907140497E-06
(PID.TID 0000.0001) %MON dynstat_vvel_sd              =   1.3404483969867E-04
(PID.TID 0000.0001) %MON dynstat_vvel_del2            =   6.3243465028869E-07
(PID.TID 0000.0001) %MON dynstat_wvel_max             =   3.5433395586500E-04
(PID.TID 0000.0001) %MON dynstat_wvel_min             =  -3.0209682344900E-04
(PID.TID 0000.0001) %MON dynstat_wvel_mean            =  -4.7067290852410E-08
(PID.TID 0000.0001) %MON dynstat_wvel_sd              =   4.8675142469660E-05
(PID.TID 0000.0001) %MON dynstat_wvel_del2            =   2.5728923402515E-07
(PID.TID 0000.0001) %MON dynstat_theta_max            =   1.2000000000000E+00
(PID.TID 0000.0001) %MON dynstat_theta_min            =  -1.0000000000000E+00
(PID.TID 0000.0001) %MON dynstat_theta_mean           =   5.6912255251486E-01
(PID.TID 0000.0001) %MON dynstat_theta_sd             =   8.6859367322147E-01
(PID.TID 0000.0001) %MON dynstat_theta_del2           =   2.2416338005317E-06
(PID.TID 0000.0001) %MON dynstat_salt_max             =   3.4700000000000E+01
(PID.TID 0000.0001) %MON dynstat_salt_min             =   3.4000000000000E+01
(PID.TID 0000.0001) %MON dynstat_salt_mean            =   3.4499263171044E+01
(PID.TID 0000.0001) %MON dynstat_salt_sd              =   2.7636992931011E-01
(PID.TID 0000.0001) %MON dynstat_salt_del2            =   7.1157194004345E-07
(PID.TID 0000.0001) %MON advcfl_uvel_max              =   2.4700916487461E-04
(PID.TID 0000.0001) %MON advcfl_vvel_max              =   2.9454989733289E-04
(PID.TID 0000.0001) %MON advcfl_wvel_max              =   1.7716697793250E-03
(PID.TID 0000.0001) %MON advcfl_W_hf_max              =   1.7716697793250E-03
(PID.TID 0000.0001) %MON pe_b_mean                    =  -8.3163872491491E-01
(PID.TID 0000.0001) %MON ke_max                       =   4.4647033293398E-06
(PID.TID 0000.0001) %MON ke_mean                      =   1.1805112201672E-08
(PID.TID 0000.0001) %MON ke_vol                       =   4.2725491310664E+12
(PID.TID 0000.0001) // =======================================================
(PID.TID 0000.0001) // End MONITOR dynamic field statistics
(PID.TID 0000.0001) // =======================================================
(PID.TID 0000.0001) // =======================================================
(PID.TID 0000.0001) // Begin OBCS MONITOR field statistics
(PID.TID 0000.0001) // =======================================================
(PID.TID 0000.0001) %MON obc_N_vVel_max               =   9.0456132738637E-06
(PID.TID 0000.0001) %MON obc_N_vVel_min               =   9.0456132738636E-06
(PID.TID 0000.0001) %MON obc_N_vVel_mean              =   9.0456132738637E-06
(PID.TID 0000.0001) %MON obc_N_vVel_sd                =  -3.5930657857772E-24
(PID.TID 0000.0001) %MON obc_N_vVel_Int               =   5.9701047607501E+02
(PID.TID 0000.0001) // =======================================================
(PID.TID 0000.0001) // End OBCS MONITOR field statistics
(PID.TID 0000.0001) // =======================================================
 cg2d: Sum(rhs),rhsMax =   4.52050242755282E+00  2.99864839046939E+02
(PID.TID 0000.0001)      cg2d_init_res =   9.61240748156174E-06
(PID.TID 0000.0001)      cg2d_iters(min,last) =      -1      80
(PID.TID 0000.0001)      cg2d_last_res =   9.77216455336901E-12
(PID.TID 0000.0001) // =======================================================
(PID.TID 0000.0001) // Begin MONITOR dynamic field statistics
(PID.TID 0000.0001) // =======================================================
(PID.TID 0000.0001) %MON time_tsnumber                =                   139
(PID.TID 0000.0001) %MON time_secondsf                =   1.3900000000000E+04
(PID.TID 0000.0001) %MON dynstat_eta_max              =   5.7964322794626E+00
(PID.TID 0000.0001) %MON dynstat_eta_min              =  -1.4196484571019E+01
(PID.TID 0000.0001) %MON dynstat_eta_mean             =  -2.5102587645360E+00
(PID.TID 0000.0001) %MON dynstat_eta_sd               =   4.9521379825822E+00
(PID.TID 0000.0001) %MON dynstat_eta_del2             =   2.0714004478073E-01
(PID.TID 0000.0001) %MON dynstat_uvel_max             =   2.4190268931292E-03
(PID.TID 0000.0001) %MON dynstat_uvel_min             =  -2.4833679993179E-03
(PID.TID 0000.0001) %MON dynstat_uvel_mean            =   9.0990956128100E-08
(PID.TID 0000.0001) %MON dynstat_uvel_sd              =   7.5961316473422E-05
(PID.TID 0000.0001) %MON dynstat_uvel_del2            =   3.9921235805581E-07
(PID.TID 0000.0001) %MON dynstat_vvel_max             =   2.9602396817854E-03
(PID.TID 0000.0001) %MON dynstat_vvel_min             =  -2.5047851733042E-03
(PID.TID 0000.0001) %MON dynstat_vvel_mean            =   4.7157947301697E-08
(PID.TID 0000.0001) %MON dynstat_vvel_sd              =   1.3400919611118E-04
(PID.TID 0000.0001) %MON dynstat_vvel_del2            =   6.3211649809226E-07
(PID.TID 0000.0001) %MON dynstat_wvel_max             =   3.5156536546630E-04
(PID.TID 0000.0001) %MON dynstat_wvel_min             =  -2.9575995525882E-04
(PID.TID 0000.0001) %MON dynstat_wvel_mean            =  -4.7783500284384E-08
(PID.TID 0000.0001) %MON dynstat_wvel_sd              =   4.8547436482237E-05
(PID.TID 0000.0001) %MON dynstat_wvel_del2            =   2.5673249778451E-07
(PID.TID 0000.0001) %MON dynstat_theta_max            =   1.2000000000000E+00
(PID.TID 0000.0001) %MON dynstat_theta_min            =  -1.0000000000000E+00
(PID.TID 0000.0001) %MON dynstat_theta_mean           =   5.6912229124749E-01
(PID.TID 0000.0001) %MON dynstat_theta_sd             =   8.6859354124040E-01
(PID.TID 0000.0001) %MON dynstat_theta_del2           =   2.2295332931079E-06
(PID.TID 0000.0001) %MON dynstat_salt_max             =   3.4700000000000E+01
(PID.TID 0000.0001) %MON dynstat_salt_min             =   3.4000000000000E+01
(PID.TID 0000.0001) %MON dynstat_salt_mean            =   3.4499263066867E+01
(PID.TID 0000.0001) %MON dynstat_salt_sd              =   2.7636988166472E-01
(PID.TID 0000.0001) %MON dynstat_salt_del2            =   7.0772852903335E-07
(PID.TID 0000.0001) %MON advcfl_uvel_max              =   2.4833679993179E-04
(PID.TID 0000.0001) %MON advcfl_vvel_max              =   2.9602396817854E-04
(PID.TID 0000.0001) %MON advcfl_wvel_max              =   1.7578268273315E-03
(PID.TID 0000.0001) %MON advcfl_W_hf_max              =   1.7578268273315E-03
(PID.TID 0000.0001) %MON pe_b_mean                    =  -8.3163886681719E-01
(PID.TID 0000.0001) %MON ke_max                       =   4.5024069194408E-06
(PID.TID 0000.0001) %MON ke_mean                      =   1.1806245331133E-08
(PID.TID 0000.0001) %MON ke_vol                       =   4.2725490843785E+12
(PID.TID 0000.0001) // =======================================================
(PID.TID 0000.0001) // End MONITOR dynamic field statistics
(PID.TID 0000.0001) // =======================================================
(PID.TID 0000.0001) // =======================================================
(PID.TID 0000.0001) // Begin OBCS MONITOR field statistics
(PID.TID 0000.0001) // =======================================================
(PID.TID 0000.0001) %MON obc_N_vVel_max               =   5.2202353943310E-06
(PID.TID 0000.0001) %MON obc_N_vVel_min               =   5.2202353943309E-06
(PID.TID 0000.0001) %MON obc_N_vVel_mean              =   5.2202353943310E-06
(PID.TID 0000.0001) %MON obc_N_vVel_sd                =  -1.9193175150644E-24
(PID.TID 0000.0001) %MON obc_N_vVel_Int               =   3.4453553602584E+02
(PID.TID 0000.0001) // =======================================================
(PID.TID 0000.0001) // End OBCS MONITOR field statistics
(PID.TID 0000.0001) // =======================================================
 cg2d: Sum(rhs),rhsMax =   4.52050108839981E+00  2.99864917467029E+02
(PID.TID 0000.0001)      cg2d_init_res =   9.57525181961110E-06
(PID.TID 0000.0001)      cg2d_iters(min,last) =      -1      77
(PID.TID 0000.0001)      cg2d_last_res =   8.71332258763554E-12
(PID.TID 0000.0001) // =======================================================
(PID.TID 0000.0001) // Begin MONITOR dynamic field statistics
(PID.TID 0000.0001) // =======================================================
(PID.TID 0000.0001) %MON time_tsnumber                =                   140
(PID.TID 0000.0001) %MON time_secondsf                =   1.4000000000000E+04
(PID.TID 0000.0001) %MON dynstat_eta_max              =   5.7964325300254E+00
(PID.TID 0000.0001) %MON dynstat_eta_min              =  -1.4196506351451E+01
(PID.TID 0000.0001) %MON dynstat_eta_mean             =  -2.5102586773752E+00
(PID.TID 0000.0001) %MON dynstat_eta_sd               =   4.9521353056864E+00
(PID.TID 0000.0001) %MON dynstat_eta_del2             =   2.0714004680940E-01
(PID.TID 0000.0001) %MON dynstat_uvel_max             =   2.4295487392330E-03
(PID.TID 0000.0001) %MON dynstat_uvel_min             =  -2.4964657911433E-03
(PID.TID 0000.0001) %MON dynstat_uvel_mean            =   5.5982562637815E-08
(PID.TID 0000.0001) %MON dynstat_uvel_sd              =   7.6144680613175E-05
(PID.TID 0000.0001) %MON dynstat_uvel_del2            =   3.9949581330312E-07
(PID.TID 0000.0001) %MON dynstat_vvel_max             =   2.9757063898614E-03
(PID.TID 0000.0001) %MON dynstat_vvel_min             =  -2.5230299014360E-03
(PID.TID 0000.0001) %MON dynstat_vvel_mean            =  -3.3119617273286E-06
(PID.TID 0000.0001) %MON dynstat_vvel_sd              =   1.3401870040446E-04
(PID.TID 0000.0001) %MON dynstat_vvel_del2            =   6.3260726292058E-07
(PID.TID 0000.0001) %MON dynstat_wvel_max             =   3.4232207220932E-04
(PID.TID 0000.0001) %MON dynstat_wvel_min             =  -2.8691852326517E-04
(PID.TID 0000.0001) %MON dynstat_wvel_mean            =  -4.7011585914535E-08
(PID.TID 0000.0001) %MON dynstat_wvel_sd              =   4.8478018260679E-05
(PID.TID 0000.0001) %MON dynstat_wvel_del2            =   2.5701145602783E-07
(PID.TID 0000.0001) %MON dynstat_theta_max            =   1.2000000000000E+00
(PID.TID 0000.0001) %MON dynstat_theta_min            =  -1.0000000000000E+00
(PID.TID 0000.0001) %MON dynstat_theta_mean           =   5.6912202857169E-01
(PID.TID 0000.0001) %MON dynstat_theta_sd             =   8.6859340973871E-01
(PID.TID 0000.0001) %MON dynstat_theta_del2           =   2.2169467739771E-06
(PID.TID 0000.0001) %MON dynstat_salt_max             =   3.4700000000000E+01
(PID.TID 0000.0001) %MON dynstat_salt_min             =   3.4000000000000E+01
(PID.TID 0000.0001) %MON dynstat_salt_mean            =   3.4499262962240E+01
(PID.TID 0000.0001) %MON dynstat_salt_sd              =   2.7636983417108E-01
(PID.TID 0000.0001) %MON dynstat_salt_del2            =   7.0373247383575E-07
(PID.TID 0000.0001) %MON advcfl_uvel_max              =   2.4964657911433E-04
(PID.TID 0000.0001) %MON advcfl_vvel_max              =   2.9757063898614E-04
(PID.TID 0000.0001) %MON advcfl_wvel_max              =   1.7116103610466E-03
(PID.TID 0000.0001) %MON advcfl_W_hf_max              =   1.7116103610466E-03
(PID.TID 0000.0001) %MON pe_b_mean                    =  -8.3163820239483E-01
(PID.TID 0000.0001) %MON ke_max                       =   4.5397227168632E-06
(PID.TID 0000.0001) %MON ke_mean                      =   1.1826759863927E-08
(PID.TID 0000.0001) %MON ke_vol                       =   4.2725490629387E+12
(PID.TID 0000.0001) // =======================================================
(PID.TID 0000.0001) // End MONITOR dynamic field statistics
(PID.TID 0000.0001) // =======================================================
(PID.TID 0000.0001) // =======================================================
(PID.TID 0000.0001) // Begin OBCS MONITOR field statistics
(PID.TID 0000.0001) // =======================================================
(PID.TID 0000.0001) %MON obc_N_vVel_max               =   1.8934199997412E-06
(PID.TID 0000.0001) %MON obc_N_vVel_min               =   1.8934199997411E-06
(PID.TID 0000.0001) %MON obc_N_vVel_mean              =   1.8934199997411E-06
(PID.TID 0000.0001) %MON obc_N_vVel_sd                =   4.4487012026191E-13
(PID.TID 0000.0001) %MON obc_N_vVel_Int               =   1.2496571998291E+02
(PID.TID 0000.0001) // =======================================================
(PID.TID 0000.0001) // End OBCS MONITOR field statistics
(PID.TID 0000.0001) // =======================================================
 cg2d: Sum(rhs),rhsMax =   4.52049418387483E+00  2.99864997094612E+02
(PID.TID 0000.0001)      cg2d_init_res =   9.54305645066234E-06
(PID.TID 0000.0001)      cg2d_iters(min,last) =      -1      77
(PID.TID 0000.0001)      cg2d_last_res =   8.59936657499235E-12
(PID.TID 0000.0001) // =======================================================
(PID.TID 0000.0001) // Begin MONITOR dynamic field statistics
(PID.TID 0000.0001) // =======================================================
(PID.TID 0000.0001) %MON time_tsnumber                =                   141
(PID.TID 0000.0001) %MON time_secondsf                =   1.4100000000000E+04
(PID.TID 0000.0001) %MON dynstat_eta_max              =   5.7964365638193E+00
(PID.TID 0000.0001) %MON dynstat_eta_min              =  -1.4196525056999E+01
(PID.TID 0000.0001) %MON dynstat_eta_mean             =  -2.5102555098404E+00
(PID.TID 0000.0001) %MON dynstat_eta_sd               =   4.9521321582542E+00
(PID.TID 0000.0001) %MON dynstat_eta_del2             =   2.0714004882139E-01
(PID.TID 0000.0001) %MON dynstat_uvel_max             =   2.4398571679782E-03
(PID.TID 0000.0001) %MON dynstat_uvel_min             =  -2.5093846352675E-03
(PID.TID 0000.0001) %MON dynstat_uvel_mean            =   1.9057537833579E-08
(PID.TID 0000.0001) %MON dynstat_uvel_sd              =   7.6324201137275E-05
(PID.TID 0000.0001) %MON dynstat_uvel_del2            =   3.9974788150561E-07
(PID.TID 0000.0001) %MON dynstat_vvel_max             =   2.9919444509705E-03
(PID.TID 0000.0001) %MON dynstat_vvel_min             =  -2.5401819244202E-03
(PID.TID 0000.0001) %MON dynstat_vvel_mean            =  -5.9701636605561E-06
(PID.TID 0000.0001) %MON dynstat_vvel_sd              =   1.3406689935520E-04
(PID.TID 0000.0001) %MON dynstat_vvel_del2            =   6.3373356519550E-07
(PID.TID 0000.0001) %MON dynstat_wvel_max             =   3.2673812282994E-04
(PID.TID 0000.0001) %MON dynstat_wvel_min             =  -2.7417061713777E-04
(PID.TID 0000.0001) %MON dynstat_wvel_mean            =  -4.4868372179726E-08
(PID.TID 0000.0001) %MON dynstat_wvel_sd              =   4.8459402821839E-05
(PID.TID 0000.0001) %MON dynstat_wvel_del2            =   2.5796739347121E-07
(PID.TID 0000.0001) %MON dynstat_theta_max            =   1.2000000000000E+00
(PID.TID 0000.0001) %MON dynstat_theta_min            =  -1.0000000000000E+00
(PID.TID 0000.0001) %MON dynstat_theta_mean           =   5.6912176474963E-01
(PID.TID 0000.0001) %MON dynstat_theta_sd             =   8.6859327857167E-01
(PID.TID 0000.0001) %MON dynstat_theta_del2           =   2.2039979983745E-06
(PID.TID 0000.0001) %MON dynstat_salt_max             =   3.4700000000000E+01
(PID.TID 0000.0001) %MON dynstat_salt_min             =   3.4000000000000E+01
(PID.TID 0000.0001) %MON dynstat_salt_mean            =   3.4499262857248E+01
(PID.TID 0000.0001) %MON dynstat_salt_sd              =   2.7636978678300E-01
(PID.TID 0000.0001) %MON dynstat_salt_del2            =   6.9962341889969E-07
(PID.TID 0000.0001) %MON advcfl_uvel_max              =   2.5093846352675E-04
(PID.TID 0000.0001) %MON advcfl_vvel_max              =   2.9919444509705E-04
(PID.TID 0000.0001) %MON advcfl_wvel_max              =   1.6336906141497E-03
(PID.TID 0000.0001) %MON advcfl_W_hf_max              =   1.6336906141497E-03
(PID.TID 0000.0001) %MON pe_b_mean                    =  -8.3163690971185E-01
(PID.TID 0000.0001) %MON ke_max                       =   4.5766586584945E-06
(PID.TID 0000.0001) %MON ke_mean                      =   1.1858979832673E-08
(PID.TID 0000.0001) %MON ke_vol                       =   4.2725490634564E+12
(PID.TID 0000.0001) // =======================================================
(PID.TID 0000.0001) // End MONITOR dynamic field statistics
(PID.TID 0000.0001) // =======================================================
(PID.TID 0000.0001) // =======================================================
(PID.TID 0000.0001) // Begin OBCS MONITOR field statistics
(PID.TID 0000.0001) // =======================================================
(PID.TID 0000.0001) %MON obc_N_vVel_max               =  -8.7882877987729E-07
(PID.TID 0000.0001) %MON obc_N_vVel_min               =  -8.7882877987733E-07
(PID.TID 0000.0001) %MON obc_N_vVel_mean              =  -8.7882877987729E-07
(PID.TID 0000.0001) %MON obc_N_vVel_sd                =   2.2469334198891E-13
(PID.TID 0000.0001) %MON obc_N_vVel_Int               =  -5.8002699471901E+01
(PID.TID 0000.0001) // =======================================================
(PID.TID 0000.0001) // End OBCS MONITOR field statistics
(PID.TID 0000.0001) // =======================================================
 cg2d: Sum(rhs),rhsMax =   4.52048290413527E+00  2.99865077586600E+02
(PID.TID 0000.0001)      cg2d_init_res =   9.51385797936975E-06
(PID.TID 0000.0001)      cg2d_iters(min,last) =      -1      77
(PID.TID 0000.0001)      cg2d_last_res =   9.20488569297326E-12
(PID.TID 0000.0001) // =======================================================
(PID.TID 0000.0001) // Begin MONITOR dynamic field statistics
(PID.TID 0000.0001) // =======================================================
(PID.TID 0000.0001) %MON time_tsnumber                =                   142
(PID.TID 0000.0001) %MON time_secondsf                =   1.4200000000000E+04
(PID.TID 0000.0001) %MON dynstat_eta_max              =   5.7964433522374E+00
(PID.TID 0000.0001) %MON dynstat_eta_min              =  -1.4196541267625E+01
(PID.TID 0000.0001) %MON dynstat_eta_mean             =  -2.5102499199582E+00
(PID.TID 0000.0001) %MON dynstat_eta_sd               =   4.9521287768913E+00
(PID.TID 0000.0001) %MON dynstat_eta_del2             =   2.0714005081235E-01
(PID.TID 0000.0001) %MON dynstat_uvel_max             =   2.4499542427741E-03
(PID.TID 0000.0001) %MON dynstat_uvel_min             =  -2.5221244063189E-03
(PID.TID 0000.0001) %MON dynstat_uvel_mean            =  -1.8763016710619E-08
(PID.TID 0000.0001) %MON dynstat_uvel_sd              =   7.6500228890684E-05
(PID.TID 0000.0001) %MON dynstat_uvel_del2            =   3.9996909781239E-07
(PID.TID 0000.0001) %MON dynstat_vvel_max             =   3.0089715176214E-03
(PID.TID 0000.0001) %MON dynstat_vvel_min             =  -2.5562249744597E-03
(PID.TID 0000.0001) %MON dynstat_vvel_mean            =  -7.9023051277373E-06
(PID.TID 0000.0001) %MON dynstat_vvel_sd              =   1.3414290132129E-04
(PID.TID 0000.0001) %MON dynstat_vvel_del2            =   6.3524832758991E-07
(PID.TID 0000.0001) %MON dynstat_wvel_max             =   3.0507632009985E-04
(PID.TID 0000.0001) %MON dynstat_wvel_min             =  -2.6955011707307E-04
(PID.TID 0000.0001) %MON dynstat_wvel_mean            =  -4.1499580093077E-08
(PID.TID 0000.0001) %MON dynstat_wvel_sd              =   4.8477760414120E-05
(PID.TID 0000.0001) %MON dynstat_wvel_del2            =   2.5936057036826E-07
(PID.TID 0000.0001) %MON dynstat_theta_max            =   1.2000000000000E+00
(PID.TID 0000.0001) %MON dynstat_theta_min            =  -1.0000000000000E+00
(PID.TID 0000.0001) %MON dynstat_theta_mean           =   5.6912150005675E-01
(PID.TID 0000.0001) %MON dynstat_theta_sd             =   8.6859314763567E-01
(PID.TID 0000.0001) %MON dynstat_theta_del2           =   2.1908703305563E-06
(PID.TID 0000.0001) %MON dynstat_salt_max             =   3.4700000000000E+01
(PID.TID 0000.0001) %MON dynstat_salt_min             =   3.4000000000000E+01
(PID.TID 0000.0001) %MON dynstat_salt_mean            =   3.4499262751977E+01
(PID.TID 0000.0001) %MON dynstat_salt_sd              =   2.7636973946776E-01
(PID.TID 0000.0001) %MON dynstat_salt_del2            =   6.9546009764479E-07
(PID.TID 0000.0001) %MON advcfl_uvel_max              =   2.5221244063189E-04
(PID.TID 0000.0001) %MON advcfl_vvel_max              =   3.0089715176214E-04
(PID.TID 0000.0001) %MON advcfl_wvel_max              =   1.5253816004992E-03
(PID.TID 0000.0001) %MON advcfl_W_hf_max              =   1.5253816004992E-03
(PID.TID 0000.0001) %MON pe_b_mean                    =  -8.3163517197231E-01
(PID.TID 0000.0001) %MON ke_max                       =   4.6132168802370E-06
(PID.TID 0000.0001) %MON ke_mean                      =   1.1895722815709E-08
(PID.TID 0000.0001) %MON ke_vol                       =   4.2725490822715E+12
(PID.TID 0000.0001) // =======================================================
(PID.TID 0000.0001) // End MONITOR dynamic field statistics
(PID.TID 0000.0001) // =======================================================
(PID.TID 0000.0001) // =======================================================
(PID.TID 0000.0001) // Begin OBCS MONITOR field statistics
(PID.TID 0000.0001) // =======================================================
(PID.TID 0000.0001) %MON obc_N_vVel_max               =  -3.0588548436251E-06
(PID.TID 0000.0001) %MON obc_N_vVel_min               =  -3.0588548436252E-06
(PID.TID 0000.0001) %MON obc_N_vVel_mean              =  -3.0588548436251E-06
(PID.TID 0000.0001) %MON obc_N_vVel_sd                =   5.3172149517507E-13
(PID.TID 0000.0001) %MON obc_N_vVel_Int               =  -2.0188441967926E+02
(PID.TID 0000.0001) // =======================================================
(PID.TID 0000.0001) // End OBCS MONITOR field statistics
(PID.TID 0000.0001) // =======================================================
 cg2d: Sum(rhs),rhsMax =   4.52046847820853E+00  2.99865158609404E+02
(PID.TID 0000.0001)      cg2d_init_res =   9.48401418197813E-06
(PID.TID 0000.0001)      cg2d_iters(min,last) =      -1      74
(PID.TID 0000.0001)      cg2d_last_res =   7.98899634167342E-12
(PID.TID 0000.0001) // =======================================================
(PID.TID 0000.0001) // Begin MONITOR dynamic field statistics
(PID.TID 0000.0001) // =======================================================
(PID.TID 0000.0001) %MON time_tsnumber                =                   143
(PID.TID 0000.0001) %MON time_secondsf                =   1.4300000000000E+04
(PID.TID 0000.0001) %MON dynstat_eta_max              =   5.7964518607519E+00
(PID.TID 0000.0001) %MON dynstat_eta_min              =  -1.4196555591497E+01
(PID.TID 0000.0001) %MON dynstat_eta_mean             =  -2.5102425874200E+00
(PID.TID 0000.0001) %MON dynstat_eta_sd               =   4.9521253890546E+00
(PID.TID 0000.0001) %MON dynstat_eta_del2             =   2.0714005277898E-01
(PID.TID 0000.0001) %MON dynstat_uvel_max             =   2.4598417463757E-03
(PID.TID 0000.0001) %MON dynstat_uvel_min             =  -2.5346851347194E-03
(PID.TID 0000.0001) %MON dynstat_uvel_mean            =  -5.6510525993961E-08
(PID.TID 0000.0001) %MON dynstat_uvel_sd              =   7.6673153491953E-05
(PID.TID 0000.0001) %MON dynstat_uvel_del2            =   4.0016002250101E-07
(PID.TID 0000.0001) %MON dynstat_vvel_max             =   3.0267787344034E-03
(PID.TID 0000.0001) %MON dynstat_vvel_min             =  -2.5711690374770E-03
(PID.TID 0000.0001) %MON dynstat_vvel_mean            =  -9.1041538859874E-06
(PID.TID 0000.0001) %MON dynstat_vvel_sd              =   1.3423294096680E-04
(PID.TID 0000.0001) %MON dynstat_vvel_del2            =   6.3686692275593E-07
(PID.TID 0000.0001) %MON dynstat_wvel_max             =   2.7772494996651E-04
(PID.TID 0000.0001) %MON dynstat_wvel_min             =  -2.9201279140872E-04
(PID.TID 0000.0001) %MON dynstat_wvel_mean            =  -3.7074287581096E-08
(PID.TID 0000.0001) %MON dynstat_wvel_sd              =   4.8515068231172E-05
(PID.TID 0000.0001) %MON dynstat_wvel_del2            =   2.6090897201948E-07
(PID.TID 0000.0001) %MON dynstat_theta_max            =   1.2000000000000E+00
(PID.TID 0000.0001) %MON dynstat_theta_min            =  -1.0000000000000E+00
(PID.TID 0000.0001) %MON dynstat_theta_mean           =   5.6912123477338E-01
(PID.TID 0000.0001) %MON dynstat_theta_sd             =   8.6859301681493E-01
(PID.TID 0000.0001) %MON dynstat_theta_del2           =   2.1777809859984E-06
(PID.TID 0000.0001) %MON dynstat_salt_max             =   3.4700000000000E+01
(PID.TID 0000.0001) %MON dynstat_salt_min             =   3.4000000000000E+01
(PID.TID 0000.0001) %MON dynstat_salt_mean            =   3.4499262646517E+01
(PID.TID 0000.0001) %MON dynstat_salt_sd              =   2.7636969218861E-01
(PID.TID 0000.0001) %MON dynstat_salt_del2            =   6.9131194954843E-07
(PID.TID 0000.0001) %MON advcfl_uvel_max              =   2.5346851347194E-04
(PID.TID 0000.0001) %MON advcfl_vvel_max              =   3.0267787344034E-04
(PID.TID 0000.0001) %MON advcfl_wvel_max              =   1.4600639570436E-03
(PID.TID 0000.0001) %MON advcfl_W_hf_max              =   1.4600639570436E-03
(PID.TID 0000.0001) %MON pe_b_mean                    =  -8.3163317231730E-01
(PID.TID 0000.0001) %MON ke_max                       =   4.6493938924849E-06
(PID.TID 0000.0001) %MON ke_mean                      =   1.1930958870000E-08
(PID.TID 0000.0001) %MON ke_vol                       =   4.2725491154754E+12
(PID.TID 0000.0001) // =======================================================
(PID.TID 0000.0001) // End MONITOR dynamic field statistics
(PID.TID 0000.0001) // =======================================================
(PID.TID 0000.0001) // =======================================================
(PID.TID 0000.0001) // Begin OBCS MONITOR field statistics
(PID.TID 0000.0001) // =======================================================
(PID.TID 0000.0001) %MON obc_N_vVel_max               =  -4.6271597444299E-06
(PID.TID 0000.0001) %MON obc_N_vVel_min               =  -4.6271597444301E-06
(PID.TID 0000.0001) %MON obc_N_vVel_mean              =  -4.6271597444301E-06
(PID.TID 0000.0001) %MON obc_N_vVel_sd                =  -2.5655523686215E-24
(PID.TID 0000.0001) %MON obc_N_vVel_Int               =  -3.0539254313239E+02
(PID.TID 0000.0001) // =======================================================
(PID.TID 0000.0001) // End OBCS MONITOR field statistics
(PID.TID 0000.0001) // =======================================================
 cg2d: Sum(rhs),rhsMax =   4.52045213876793E+00  2.99865239849264E+02
(PID.TID 0000.0001)      cg2d_init_res =   9.44925518914575E-06
(PID.TID 0000.0001)      cg2d_iters(min,last) =      -1      74
(PID.TID 0000.0001)      cg2d_last_res =   7.08527875036394E-12
(PID.TID 0000.0001) // =======================================================
(PID.TID 0000.0001) // Begin MONITOR dynamic field statistics
(PID.TID 0000.0001) // =======================================================
(PID.TID 0000.0001) %MON time_tsnumber                =                   144
(PID.TID 0000.0001) %MON time_secondsf                =   1.4400000000000E+04
(PID.TID 0000.0001) %MON dynstat_eta_max              =   5.7964610748154E+00
(PID.TID 0000.0001) %MON dynstat_eta_min              =  -1.4196568648835E+01
(PID.TID 0000.0001) %MON dynstat_eta_mean             =  -2.5102341941088E+00
(PID.TID 0000.0001) %MON dynstat_eta_sd               =   4.9521222076213E+00
(PID.TID 0000.0001) %MON dynstat_eta_del2             =   2.0714005471867E-01
(PID.TID 0000.0001) %MON dynstat_uvel_max             =   2.4695212086314E-03
(PID.TID 0000.0001) %MON dynstat_uvel_min             =  -2.5470669998704E-03
(PID.TID 0000.0001) %MON dynstat_uvel_mean            =  -9.3288036207943E-08
(PID.TID 0000.0001) %MON dynstat_uvel_sd              =   7.6843395485068E-05
(PID.TID 0000.0001) %MON dynstat_uvel_del2            =   4.0032124114477E-07
(PID.TID 0000.0001) %MON dynstat_vvel_max             =   3.0453328151285E-03
(PID.TID 0000.0001) %MON dynstat_vvel_min             =  -2.5850482689371E-03
(PID.TID 0000.0001) %MON dynstat_vvel_mean            =  -9.5911507982667E-06
(PID.TID 0000.0001) %MON dynstat_vvel_sd              =   1.3432226474179E-04
(PID.TID 0000.0001) %MON dynstat_vvel_del2            =   6.3830559932953E-07
(PID.TID 0000.0001) %MON dynstat_wvel_max             =   2.7208005293236E-04
(PID.TID 0000.0001) %MON dynstat_wvel_min             =  -3.0893346859030E-04
(PID.TID 0000.0001) %MON dynstat_wvel_mean            =  -3.1778371000224E-08
(PID.TID 0000.0001) %MON dynstat_wvel_sd              =   4.8551715356674E-05
(PID.TID 0000.0001) %MON dynstat_wvel_del2            =   2.6232897832204E-07
(PID.TID 0000.0001) %MON dynstat_theta_max            =   1.2000000000000E+00
(PID.TID 0000.0001) %MON dynstat_theta_min            =  -1.0000000000000E+00
(PID.TID 0000.0001) %MON dynstat_theta_mean           =   5.6912096917676E-01
(PID.TID 0000.0001) %MON dynstat_theta_sd             =   8.6859288607866E-01
(PID.TID 0000.0001) %MON dynstat_theta_del2           =   2.1649463182462E-06
(PID.TID 0000.0001) %MON dynstat_salt_max             =   3.4700000000000E+01
(PID.TID 0000.0001) %MON dynstat_salt_min             =   3.4000000000000E+01
(PID.TID 0000.0001) %MON dynstat_salt_mean            =   3.4499262540957E+01
(PID.TID 0000.0001) %MON dynstat_salt_sd              =   2.7636964493563E-01
(PID.TID 0000.0001) %MON dynstat_salt_del2            =   6.8724807599334E-07
(PID.TID 0000.0001) %MON advcfl_uvel_max              =   2.5470669998704E-04
(PID.TID 0000.0001) %MON advcfl_vvel_max              =   3.0453328151285E-04
(PID.TID 0000.0001) %MON advcfl_wvel_max              =   1.5446673429515E-03
(PID.TID 0000.0001) %MON advcfl_W_hf_max              =   1.5446673429515E-03
(PID.TID 0000.0001) %MON pe_b_mean                    =  -8.3163108896944E-01
(PID.TID 0000.0001) %MON ke_max                       =   4.6851809219384E-06
(PID.TID 0000.0001) %MON ke_mean                      =   1.1960277535003E-08
(PID.TID 0000.0001) %MON ke_vol                       =   4.2725491590307E+12
(PID.TID 0000.0001) // =======================================================
(PID.TID 0000.0001) // End MONITOR dynamic field statistics
(PID.TID 0000.0001) // =======================================================
(PID.TID 0000.0001) // =======================================================
(PID.TID 0000.0001) // Begin OBCS MONITOR field statistics
(PID.TID 0000.0001) // =======================================================
(PID.TID 0000.0001) %MON obc_N_vVel_max               =  -5.5817685413904E-06
(PID.TID 0000.0001) %MON obc_N_vVel_min               =  -5.5817685413906E-06
(PID.TID 0000.0001) %MON obc_N_vVel_mean              =  -5.5817685413904E-06
(PID.TID 0000.0001) %MON obc_N_vVel_sd                =   1.4953168872541E-12
(PID.TID 0000.0001) %MON obc_N_vVel_Int               =  -3.6839672373177E+02
(PID.TID 0000.0001) // =======================================================
(PID.TID 0000.0001) // End OBCS MONITOR field statistics
(PID.TID 0000.0001) // =======================================================
 cg2d: Sum(rhs),rhsMax =   4.52043508921357E+00  2.99865321020794E+02
(PID.TID 0000.0001)      cg2d_init_res =   9.40562468258267E-06
(PID.TID 0000.0001)      cg2d_iters(min,last) =      -1      74
(PID.TID 0000.0001)      cg2d_last_res =   8.48294666800412E-12
(PID.TID 0000.0001) // =======================================================
(PID.TID 0000.0001) // Begin MONITOR dynamic field statistics
(PID.TID 0000.0001) // =======================================================
(PID.TID 0000.0001) %MON time_tsnumber                =                   145
(PID.TID 0000.0001) %MON time_secondsf                =   1.4500000000000E+04
(PID.TID 0000.0001) %MON dynstat_eta_max              =   5.7964700271699E+00
(PID.TID 0000.0001) %MON dynstat_eta_min              =  -1.4196581052611E+01
(PID.TID 0000.0001) %MON dynstat_eta_mean             =  -2.5102254058902E+00
(PID.TID 0000.0001) %MON dynstat_eta_sd               =   4.9521194261816E+00
(PID.TID 0000.0001) %MON dynstat_eta_del2             =   2.0714005663008E-01
(PID.TID 0000.0001) %MON dynstat_uvel_max             =   2.4789939707581E-03
(PID.TID 0000.0001) %MON dynstat_uvel_min             =  -2.5592702885717E-03
(PID.TID 0000.0001) %MON dynstat_uvel_mean            =  -1.2828238613377E-07
(PID.TID 0000.0001) %MON dynstat_uvel_sd              =   7.7011395001143E-05
(PID.TID 0000.0001) %MON dynstat_uvel_del2            =   4.0045335818492E-07
(PID.TID 0000.0001) %MON dynstat_vvel_max             =   3.0645784326477E-03
(PID.TID 0000.0001) %MON dynstat_vvel_min             =  -2.5979186461873E-03
(PID.TID 0000.0001) %MON dynstat_vvel_mean            =  -9.3967180016075E-06
(PID.TID 0000.0001) %MON dynstat_vvel_sd              =   1.3439706948760E-04
(PID.TID 0000.0001) %MON dynstat_vvel_del2            =   6.3931672508729E-07
(PID.TID 0000.0001) %MON dynstat_wvel_max             =   2.9071253492330E-04
(PID.TID 0000.0001) %MON dynstat_wvel_min             =  -3.1899314380268E-04
(PID.TID 0000.0001) %MON dynstat_wvel_mean            =  -2.5809145429839E-08
(PID.TID 0000.0001) %MON dynstat_wvel_sd              =   4.8569146453539E-05
(PID.TID 0000.0001) %MON dynstat_wvel_del2            =   2.6337135987180E-07
(PID.TID 0000.0001) %MON dynstat_theta_max            =   1.2000000000000E+00
(PID.TID 0000.0001) %MON dynstat_theta_min            =  -1.0000000000000E+00
(PID.TID 0000.0001) %MON dynstat_theta_mean           =   5.6912070353421E-01
(PID.TID 0000.0001) %MON dynstat_theta_sd             =   8.6859275522747E-01
(PID.TID 0000.0001) %MON dynstat_theta_del2           =   2.1525591708874E-06
(PID.TID 0000.0001) %MON dynstat_salt_max             =   3.4700000000000E+01
(PID.TID 0000.0001) %MON dynstat_salt_min             =   3.4000000000000E+01
(PID.TID 0000.0001) %MON dynstat_salt_mean            =   3.4499262435381E+01
(PID.TID 0000.0001) %MON dynstat_salt_sd              =   2.7636959764564E-01
(PID.TID 0000.0001) %MON dynstat_salt_del2            =   6.8333003457961E-07
(PID.TID 0000.0001) %MON advcfl_uvel_max              =   2.5592702885717E-04
(PID.TID 0000.0001) %MON advcfl_vvel_max              =   3.0645784326477E-04
(PID.TID 0000.0001) %MON advcfl_wvel_max              =   1.5949657190134E-03
(PID.TID 0000.0001) %MON advcfl_W_hf_max              =   1.5949657190134E-03
(PID.TID 0000.0001) %MON pe_b_mean                    =  -8.3162909081811E-01
(PID.TID 0000.0001) %MON ke_max                       =   4.7205643859512E-06
(PID.TID 0000.0001) %MON ke_mean                      =   1.1981137340953E-08
(PID.TID 0000.0001) %MON ke_vol                       =   4.2725492088870E+12
(PID.TID 0000.0001) // =======================================================
(PID.TID 0000.0001) // End MONITOR dynamic field statistics
(PID.TID 0000.0001) // =======================================================
(PID.TID 0000.0001) // =======================================================
(PID.TID 0000.0001) // Begin OBCS MONITOR field statistics
(PID.TID 0000.0001) // =======================================================
(PID.TID 0000.0001) %MON obc_N_vVel_max               =  -5.9370979241511E-06
(PID.TID 0000.0001) %MON obc_N_vVel_min               =  -5.9370979241512E-06
(PID.TID 0000.0001) %MON obc_N_vVel_mean              =  -5.9370979241511E-06
(PID.TID 0000.0001) %MON obc_N_vVel_sd                =   6.8684164339144E-13
(PID.TID 0000.0001) %MON obc_N_vVel_Int               =  -3.9184846299397E+02
(PID.TID 0000.0001) // =======================================================
(PID.TID 0000.0001) // End OBCS MONITOR field statistics
(PID.TID 0000.0001) // =======================================================
 cg2d: Sum(rhs),rhsMax =   4.52041847356207E+00  2.99865401874384E+02
(PID.TID 0000.0001)      cg2d_init_res =   9.34988380723345E-06
(PID.TID 0000.0001)      cg2d_iters(min,last) =      -1      77
(PID.TID 0000.0001)      cg2d_last_res =   9.56571186908449E-12
(PID.TID 0000.0001) // =======================================================
(PID.TID 0000.0001) // Begin MONITOR dynamic field statistics
(PID.TID 0000.0001) // =======================================================
(PID.TID 0000.0001) %MON time_tsnumber                =                   146
(PID.TID 0000.0001) %MON time_secondsf                =   1.4600000000000E+04
(PID.TID 0000.0001) %MON dynstat_eta_max              =   5.7964778195494E+00
(PID.TID 0000.0001) %MON dynstat_eta_min              =  -1.4196593394348E+01
(PID.TID 0000.0001) %MON dynstat_eta_mean             =  -2.5102168559538E+00
(PID.TID 0000.0001) %MON dynstat_eta_sd               =   4.9521172151426E+00
(PID.TID 0000.0001) %MON dynstat_eta_del2             =   2.0714005851266E-01
(PID.TID 0000.0001) %MON dynstat_uvel_max             =   2.4882612109920E-03
(PID.TID 0000.0001) %MON dynstat_uvel_min             =  -2.5712953491990E-03
(PID.TID 0000.0001) %MON dynstat_uvel_mean            =  -1.6076960304479E-07
(PID.TID 0000.0001) %MON dynstat_uvel_sd              =   7.7177599156723E-05
(PID.TID 0000.0001) %MON dynstat_uvel_del2            =   4.0055698768481E-07
(PID.TID 0000.0001) %MON dynstat_vvel_max             =   3.0844412377160E-03
(PID.TID 0000.0001) %MON dynstat_vvel_min             =  -2.6098549253204E-03
(PID.TID 0000.0001) %MON dynstat_vvel_mean            =  -8.5702009587913E-06
(PID.TID 0000.0001) %MON dynstat_vvel_sd              =   1.3444622614966E-04
(PID.TID 0000.0001) %MON dynstat_vvel_del2            =   6.3971676001445E-07
(PID.TID 0000.0001) %MON dynstat_wvel_max             =   3.0478086605142E-04
(PID.TID 0000.0001) %MON dynstat_wvel_min             =  -3.2791488144698E-04
(PID.TID 0000.0001) %MON dynstat_wvel_mean            =  -1.9368835852941E-08
(PID.TID 0000.0001) %MON dynstat_wvel_sd              =   4.8552183421255E-05
(PID.TID 0000.0001) %MON dynstat_wvel_del2            =   2.6384866502446E-07
(PID.TID 0000.0001) %MON dynstat_theta_max            =   1.2000000000000E+00
(PID.TID 0000.0001) %MON dynstat_theta_min            =  -1.0000000000000E+00
(PID.TID 0000.0001) %MON dynstat_theta_mean           =   5.6912043809648E-01
(PID.TID 0000.0001) %MON dynstat_theta_sd             =   8.6859262418665E-01
(PID.TID 0000.0001) %MON dynstat_theta_del2           =   2.1407586828022E-06
(PID.TID 0000.0001) %MON dynstat_salt_max             =   3.4700000000000E+01
(PID.TID 0000.0001) %MON dynstat_salt_min             =   3.4000000000000E+01
(PID.TID 0000.0001) %MON dynstat_salt_mean            =   3.4499262329868E+01
(PID.TID 0000.0001) %MON dynstat_salt_sd              =   2.7636955029492E-01
(PID.TID 0000.0001) %MON dynstat_salt_del2            =   6.7960221084192E-07
(PID.TID 0000.0001) %MON advcfl_uvel_max              =   2.5712953491990E-04
(PID.TID 0000.0001) %MON advcfl_vvel_max              =   3.0844412377160E-04
(PID.TID 0000.0001) %MON advcfl_wvel_max              =   1.6395744072349E-03
(PID.TID 0000.0001) %MON advcfl_W_hf_max              =   1.6395744072349E-03
(PID.TID 0000.0001) %MON pe_b_mean                    =  -8.3162733354101E-01
(PID.TID 0000.0001) %MON ke_max                       =   4.7555263954252E-06
(PID.TID 0000.0001) %MON ke_mean                      =   1.1992893984033E-08
(PID.TID 0000.0001) %MON ke_vol                       =   4.2725492610890E+12
(PID.TID 0000.0001) // =======================================================
(PID.TID 0000.0001) // End MONITOR dynamic field statistics
(PID.TID 0000.0001) // =======================================================
(PID.TID 0000.0001) // =======================================================
(PID.TID 0000.0001) // Begin OBCS MONITOR field statistics
(PID.TID 0000.0001) // =======================================================
(PID.TID 0000.0001) %MON obc_N_vVel_max               =  -5.7225545959109E-06
(PID.TID 0000.0001) %MON obc_N_vVel_min               =  -5.7225545959110E-06
(PID.TID 0000.0001) %MON obc_N_vVel_mean              =  -5.7225545959110E-06
(PID.TID 0000.0001) %MON obc_N_vVel_sd                =  -1.4023296322188E-24
(PID.TID 0000.0001) %MON obc_N_vVel_Int               =  -3.7768860333012E+02
(PID.TID 0000.0001) // =======================================================
(PID.TID 0000.0001) // End OBCS MONITOR field statistics
(PID.TID 0000.0001) // =======================================================
 cg2d: Sum(rhs),rhsMax =   4.52040334992699E+00  2.99865482201849E+02
(PID.TID 0000.0001)      cg2d_init_res =   9.28034182395482E-06
(PID.TID 0000.0001)      cg2d_iters(min,last) =      -1      78
(PID.TID 0000.0001)      cg2d_last_res =   8.46657927049418E-12
(PID.TID 0000.0001) // =======================================================
(PID.TID 0000.0001) // Begin MONITOR dynamic field statistics
(PID.TID 0000.0001) // =======================================================
(PID.TID 0000.0001) %MON time_tsnumber                =                   147
(PID.TID 0000.0001) %MON time_secondsf                =   1.4700000000000E+04
(PID.TID 0000.0001) %MON dynstat_eta_max              =   5.7964836415222E+00
(PID.TID 0000.0001) %MON dynstat_eta_min              =  -1.4196606226800E+01
(PID.TID 0000.0001) %MON dynstat_eta_mean             =  -2.5102091301346E+00
(PID.TID 0000.0001) %MON dynstat_eta_sd               =   4.9521157187230E+00
(PID.TID 0000.0001) %MON dynstat_eta_del2             =   2.0714006036727E-01
(PID.TID 0000.0001) %MON dynstat_uvel_max             =   2.4973239862192E-03
(PID.TID 0000.0001) %MON dynstat_uvel_min             =  -2.5831425715204E-03
(PID.TID 0000.0001) %MON dynstat_uvel_mean            =  -1.9011411778796E-07
(PID.TID 0000.0001) %MON dynstat_uvel_sd              =   7.7342450122483E-05
(PID.TID 0000.0001) %MON dynstat_uvel_del2            =   4.0063274945036E-07
(PID.TID 0000.0001) %MON dynstat_vvel_max             =   3.1048309854693E-03
(PID.TID 0000.0001) %MON dynstat_vvel_min             =  -2.6209475831331E-03
(PID.TID 0000.0001) %MON dynstat_vvel_mean            =  -7.1745267561633E-06
(PID.TID 0000.0001) %MON dynstat_vvel_sd              =   1.3446258713970E-04
(PID.TID 0000.0001) %MON dynstat_vvel_del2            =   6.3940452361258E-07
(PID.TID 0000.0001) %MON dynstat_wvel_max             =   3.1396975490541E-04
(PID.TID 0000.0001) %MON dynstat_wvel_min             =  -3.3454559480288E-04
(PID.TID 0000.0001) %MON dynstat_wvel_mean            =  -1.2659234714020E-08
(PID.TID 0000.0001) %MON dynstat_wvel_sd              =   4.8490765628308E-05
(PID.TID 0000.0001) %MON dynstat_wvel_del2            =   2.6365253876675E-07
(PID.TID 0000.0001) %MON dynstat_theta_max            =   1.2000000000000E+00
(PID.TID 0000.0001) %MON dynstat_theta_min            =  -1.0000000000000E+00
(PID.TID 0000.0001) %MON dynstat_theta_mean           =   5.6912017309235E-01
(PID.TID 0000.0001) %MON dynstat_theta_sd             =   8.6859249294221E-01
(PID.TID 0000.0001) %MON dynstat_theta_del2           =   2.1296202199707E-06
(PID.TID 0000.0001) %MON dynstat_salt_max             =   3.4700000000000E+01
(PID.TID 0000.0001) %MON dynstat_salt_min             =   3.4000000000000E+01
(PID.TID 0000.0001) %MON dynstat_salt_mean            =   3.4499262224493E+01
(PID.TID 0000.0001) %MON dynstat_salt_sd              =   2.7636950287920E-01
(PID.TID 0000.0001) %MON dynstat_salt_del2            =   6.7608868413900E-07
(PID.TID 0000.0001) %MON advcfl_uvel_max              =   2.5831425715204E-04
(PID.TID 0000.0001) %MON advcfl_vvel_max              =   3.1048309854693E-04
(PID.TID 0000.0001) %MON advcfl_wvel_max              =   1.6727279740144E-03
(PID.TID 0000.0001) %MON advcfl_W_hf_max              =   1.6727279740144E-03
(PID.TID 0000.0001) %MON pe_b_mean                    =  -8.3162595632581E-01
(PID.TID 0000.0001) %MON ke_max                       =   4.7900453684667E-06
(PID.TID 0000.0001) %MON ke_mean                      =   1.1996627077859E-08
(PID.TID 0000.0001) %MON ke_vol                       =   4.2725493118756E+12
(PID.TID 0000.0001) // =======================================================
(PID.TID 0000.0001) // End MONITOR dynamic field statistics
(PID.TID 0000.0001) // =======================================================
(PID.TID 0000.0001) // =======================================================
(PID.TID 0000.0001) // Begin OBCS MONITOR field statistics
(PID.TID 0000.0001) // =======================================================
(PID.TID 0000.0001) %MON obc_N_vVel_max               =  -4.9807585941565E-06
(PID.TID 0000.0001) %MON obc_N_vVel_min               =  -4.9807585941565E-06
(PID.TID 0000.0001) %MON obc_N_vVel_mean              =  -4.9807585941565E-06
(PID.TID 0000.0001) %MON obc_N_vVel_sd                =  -8.4010530962417E-26
(PID.TID 0000.0001) %MON obc_N_vVel_Int               =  -3.2873006721433E+02
(PID.TID 0000.0001) // =======================================================
(PID.TID 0000.0001) // End OBCS MONITOR field statistics
(PID.TID 0000.0001) // =======================================================
 cg2d: Sum(rhs),rhsMax =   4.52039066795432E+00  2.99865561840320E+02
(PID.TID 0000.0001)      cg2d_init_res =   9.19689460726449E-06
(PID.TID 0000.0001)      cg2d_iters(min,last) =      -1      80
(PID.TID 0000.0001)      cg2d_last_res =   8.22977665453514E-12
(PID.TID 0000.0001) // =======================================================
(PID.TID 0000.0001) // Begin MONITOR dynamic field statistics
(PID.TID 0000.0001) // =======================================================
(PID.TID 0000.0001) %MON time_tsnumber                =                   148
(PID.TID 0000.0001) %MON time_secondsf                =   1.4800000000000E+04
(PID.TID 0000.0001) %MON dynstat_eta_max              =   5.7964867914133E+00
(PID.TID 0000.0001) %MON dynstat_eta_min              =  -1.4196620058745E+01
(PID.TID 0000.0001) %MON dynstat_eta_mean             =  -2.5102027544146E+00
(PID.TID 0000.0001) %MON dynstat_eta_sd               =   4.9521150528202E+00
(PID.TID 0000.0001) %MON dynstat_eta_del2             =   2.0714006219538E-01
(PID.TID 0000.0001) %MON dynstat_uvel_max             =   2.5061832804667E-03
(PID.TID 0000.0001) %MON dynstat_uvel_min             =  -2.5948124132320E-03
(PID.TID 0000.0001) %MON dynstat_uvel_mean            =  -2.1578009299909E-07
(PID.TID 0000.0001) %MON dynstat_uvel_sd              =   7.7506372624085E-05
(PID.TID 0000.0001) %MON dynstat_uvel_del2            =   4.0068125861993E-07
(PID.TID 0000.0001) %MON dynstat_vvel_max             =   3.1256451097157E-03
(PID.TID 0000.0001) %MON dynstat_vvel_min             =  -2.6312992499076E-03
(PID.TID 0000.0001) %MON dynstat_vvel_mean            =  -5.2836458216202E-06
(PID.TID 0000.0001) %MON dynstat_vvel_sd              =   1.3444373898962E-04
(PID.TID 0000.0001) %MON dynstat_vvel_del2            =   6.3836874386002E-07
(PID.TID 0000.0001) %MON dynstat_wvel_max             =   3.2000707484992E-04
(PID.TID 0000.0001) %MON dynstat_wvel_min             =  -3.3381971544345E-04
(PID.TID 0000.0001) %MON dynstat_wvel_mean            =  -5.8758175544713E-09
(PID.TID 0000.0001) %MON dynstat_wvel_sd              =   4.8380964134789E-05
(PID.TID 0000.0001) %MON dynstat_wvel_del2            =   2.6276109034897E-07
(PID.TID 0000.0001) %MON dynstat_theta_max            =   1.2000000000000E+00
(PID.TID 0000.0001) %MON dynstat_theta_min            =  -1.0000000000000E+00
(PID.TID 0000.0001) %MON dynstat_theta_mean           =   5.6911990872427E-01
(PID.TID 0000.0001) %MON dynstat_theta_sd             =   8.6859236146182E-01
(PID.TID 0000.0001) %MON dynstat_theta_del2           =   2.1191471119910E-06
(PID.TID 0000.0001) %MON dynstat_salt_max             =   3.4700000000000E+01
(PID.TID 0000.0001) %MON dynstat_salt_min             =   3.4000000000000E+01
(PID.TID 0000.0001) %MON dynstat_salt_mean            =   3.4499262119319E+01
(PID.TID 0000.0001) %MON dynstat_salt_sd              =   2.7636945538826E-01
(PID.TID 0000.0001) %MON dynstat_salt_del2            =   6.7279044266772E-07
(PID.TID 0000.0001) %MON advcfl_uvel_max              =   2.5948124132320E-04
(PID.TID 0000.0001) %MON advcfl_vvel_max              =   3.1256451097157E-04
(PID.TID 0000.0001) %MON advcfl_wvel_max              =   1.6690985772172E-03
(PID.TID 0000.0001) %MON advcfl_W_hf_max              =   1.6690985772172E-03
(PID.TID 0000.0001) %MON pe_b_mean                    =  -8.3162507925179E-01
(PID.TID 0000.0001) %MON ke_max                       =   4.8240967312390E-06
(PID.TID 0000.0001) %MON ke_mean                      =   1.1994801994909E-08
(PID.TID 0000.0001) %MON ke_vol                       =   4.2725493577670E+12
(PID.TID 0000.0001) // =======================================================
(PID.TID 0000.0001) // End MONITOR dynamic field statistics
(PID.TID 0000.0001) // =======================================================
(PID.TID 0000.0001) // =======================================================
(PID.TID 0000.0001) // Begin OBCS MONITOR field statistics
(PID.TID 0000.0001) // =======================================================
(PID.TID 0000.0001) %MON obc_N_vVel_max               =  -3.7655795283966E-06
(PID.TID 0000.0001) %MON obc_N_vVel_min               =  -3.7655795283967E-06
(PID.TID 0000.0001) %MON obc_N_vVel_mean              =  -3.7655795283967E-06
(PID.TID 0000.0001) %MON obc_N_vVel_sd                =  -1.4265634392272E-24
(PID.TID 0000.0001) %MON obc_N_vVel_Int               =  -2.4852824887418E+02
(PID.TID 0000.0001) // =======================================================
(PID.TID 0000.0001) // End OBCS MONITOR field statistics
(PID.TID 0000.0001) // =======================================================
 cg2d: Sum(rhs),rhsMax =   4.52038125066711E+00  2.99865640675866E+02
(PID.TID 0000.0001)      cg2d_init_res =   9.10155111761310E-06
(PID.TID 0000.0001)      cg2d_iters(min,last) =      -1      80
(PID.TID 0000.0001)      cg2d_last_res =   8.25179447341876E-12
(PID.TID 0000.0001) // =======================================================
(PID.TID 0000.0001) // Begin MONITOR dynamic field statistics
(PID.TID 0000.0001) // =======================================================
(PID.TID 0000.0001) %MON time_tsnumber                =                   149
(PID.TID 0000.0001) %MON time_secondsf                =   1.4900000000000E+04
(PID.TID 0000.0001) %MON dynstat_eta_max              =   5.7964866765097E+00
(PID.TID 0000.0001) %MON dynstat_eta_min              =  -1.4196635334897E+01
(PID.TID 0000.0001) %MON dynstat_eta_mean             =  -2.5101981848712E+00
(PID.TID 0000.0001) %MON dynstat_eta_sd               =   4.9521153037970E+00
(PID.TID 0000.0001) %MON dynstat_eta_del2             =   2.0714006399912E-01
(PID.TID 0000.0001) %MON dynstat_uvel_max             =   2.5148399345341E-03
(PID.TID 0000.0001) %MON dynstat_uvel_min             =  -2.6063053348935E-03
(PID.TID 0000.0001) %MON dynstat_uvel_mean            =  -2.3733518816347E-07
(PID.TID 0000.0001) %MON dynstat_uvel_sd              =   7.7669760381004E-05
(PID.TID 0000.0001) %MON dynstat_uvel_del2            =   4.0070312066758E-07
(PID.TID 0000.0001) %MON dynstat_vvel_max             =   3.1467721324461E-03
(PID.TID 0000.0001) %MON dynstat_vvel_min             =  -2.6410213007724E-03
(PID.TID 0000.0001) %MON dynstat_vvel_mean            =  -2.9798496551970E-06
(PID.TID 0000.0001) %MON dynstat_vvel_sd              =   1.3439212991927E-04
(PID.TID 0000.0001) %MON dynstat_vvel_del2            =   6.3668491618867E-07
(PID.TID 0000.0001) %MON dynstat_wvel_max             =   3.2516664687928E-04
(PID.TID 0000.0001) %MON dynstat_wvel_min             =  -3.2581443670741E-04
(PID.TID 0000.0001) %MON dynstat_wvel_mean            =   7.9645764283898E-10
(PID.TID 0000.0001) %MON dynstat_wvel_sd              =   4.8225203544678E-05
(PID.TID 0000.0001) %MON dynstat_wvel_del2            =   2.6123700327699E-07
(PID.TID 0000.0001) %MON dynstat_theta_max            =   1.2000000000000E+00
(PID.TID 0000.0001) %MON dynstat_theta_min            =  -1.0000000000000E+00
(PID.TID 0000.0001) %MON dynstat_theta_mean           =   5.6911964516418E-01
(PID.TID 0000.0001) %MON dynstat_theta_sd             =   8.6859222950722E-01
(PID.TID 0000.0001) %MON dynstat_theta_del2           =   2.1092712824420E-06
(PID.TID 0000.0001) %MON dynstat_salt_max             =   3.4700000000000E+01
(PID.TID 0000.0001) %MON dynstat_salt_min             =   3.4000000000000E+01
(PID.TID 0000.0001) %MON dynstat_salt_mean            =   3.4499262014401E+01
(PID.TID 0000.0001) %MON dynstat_salt_sd              =   2.7636940774630E-01
(PID.TID 0000.0001) %MON dynstat_salt_del2            =   6.6968565771071E-07
(PID.TID 0000.0001) %MON advcfl_uvel_max              =   2.6063053348935E-04
(PID.TID 0000.0001) %MON advcfl_vvel_max              =   3.1467721324461E-04
(PID.TID 0000.0001) %MON advcfl_wvel_max              =   1.6290721835370E-03
(PID.TID 0000.0001) %MON advcfl_W_hf_max              =   1.6290721835370E-03
(PID.TID 0000.0001) %MON pe_b_mean                    =  -8.3162480134155E-01
(PID.TID 0000.0001) %MON ke_max                       =   4.8576535126071E-06
(PID.TID 0000.0001) %MON ke_mean                      =   1.1990815203723E-08
(PID.TID 0000.0001) %MON ke_vol                       =   4.2725493956388E+12
(PID.TID 0000.0001) // =======================================================
(PID.TID 0000.0001) // End MONITOR dynamic field statistics
(PID.TID 0000.0001) // =======================================================
(PID.TID 0000.0001) // =======================================================
(PID.TID 0000.0001) // Begin OBCS MONITOR field statistics
(PID.TID 0000.0001) // =======================================================
(PID.TID 0000.0001) %MON obc_N_vVel_max               =  -2.1399299949659E-06
(PID.TID 0000.0001) %MON obc_N_vVel_min               =  -2.1399299949659E-06
(PID.TID 0000.0001) %MON obc_N_vVel_mean              =  -2.1399299949659E-06
(PID.TID 0000.0001) %MON obc_N_vVel_sd                =  -1.9710163033490E-25
(PID.TID 0000.0001) %MON obc_N_vVel_Int               =  -1.4123537966775E+02
(PID.TID 0000.0001) // =======================================================
(PID.TID 0000.0001) // End OBCS MONITOR field statistics
(PID.TID 0000.0001) // =======================================================
 cg2d: Sum(rhs),rhsMax =   4.52037578086460E+00  2.99865718640876E+02
(PID.TID 0000.0001)      cg2d_init_res =   8.99819481301218E-06
(PID.TID 0000.0001)      cg2d_iters(min,last) =      -1      78
(PID.TID 0000.0001)      cg2d_last_res =   9.83507246563105E-12
(PID.TID 0000.0001) // =======================================================
(PID.TID 0000.0001) // Begin MONITOR dynamic field statistics
(PID.TID 0000.0001) // =======================================================
(PID.TID 0000.0001) %MON time_tsnumber                =                   150
(PID.TID 0000.0001) %MON time_secondsf                =   1.5000000000000E+04
(PID.TID 0000.0001) %MON dynstat_eta_max              =   5.7964828323326E+00
(PID.TID 0000.0001) %MON dynstat_eta_min              =  -1.4196652435307E+01
(PID.TID 0000.0001) %MON dynstat_eta_mean             =  -2.5101958001033E+00
(PID.TID 0000.0001) %MON dynstat_eta_sd               =   4.9521165281010E+00
(PID.TID 0000.0001) %MON dynstat_eta_del2             =   2.0714006578144E-01
(PID.TID 0000.0001) %MON dynstat_uvel_max             =   2.5232947572569E-03
(PID.TID 0000.0001) %MON dynstat_uvel_min             =  -2.6176218640614E-03
(PID.TID 0000.0001) %MON dynstat_uvel_mean            =  -2.5445982137549E-07
(PID.TID 0000.0001) %MON dynstat_uvel_sd              =   7.7832966967803E-05
(PID.TID 0000.0001) %MON dynstat_uvel_del2            =   4.0069892575750E-07
(PID.TID 0000.0001) %MON dynstat_vvel_max             =   3.1680952753668E-03
(PID.TID 0000.0001) %MON dynstat_vvel_min             =  -2.6502303388414E-03
(PID.TID 0000.0001) %MON dynstat_vvel_mean            =  -3.5103039734080E-07
(PID.TID 0000.0001) %MON dynstat_vvel_sd              =   1.3431456675245E-04
(PID.TID 0000.0001) %MON dynstat_vvel_del2            =   6.3450236401926E-07
(PID.TID 0000.0001) %MON dynstat_wvel_max             =   3.3068679026992E-04
(PID.TID 0000.0001) %MON dynstat_wvel_min             =  -3.1077305103112E-04
(PID.TID 0000.0001) %MON dynstat_wvel_mean            =   7.1876747942538E-09
(PID.TID 0000.0001) %MON dynstat_wvel_sd              =   4.8031714319730E-05
(PID.TID 0000.0001) %MON dynstat_wvel_del2            =   2.5921722028156E-07
(PID.TID 0000.0001) %MON dynstat_theta_max            =   1.2000000000000E+00
(PID.TID 0000.0001) %MON dynstat_theta_min            =  -1.0000000000000E+00
(PID.TID 0000.0001) %MON dynstat_theta_mean           =   5.6911938255050E-01
(PID.TID 0000.0001) %MON dynstat_theta_sd             =   8.6859209698891E-01
(PID.TID 0000.0001) %MON dynstat_theta_del2           =   2.0998665254358E-06
(PID.TID 0000.0001) %MON dynstat_salt_max             =   3.4700000000000E+01
(PID.TID 0000.0001) %MON dynstat_salt_min             =   3.4000000000000E+01
(PID.TID 0000.0001) %MON dynstat_salt_mean            =   3.4499261909783E+01
(PID.TID 0000.0001) %MON dynstat_salt_sd              =   2.7636935992472E-01
(PID.TID 0000.0001) %MON dynstat_salt_del2            =   6.6673395288466E-07
(PID.TID 0000.0001) %MON advcfl_uvel_max              =   2.6176218640614E-04
(PID.TID 0000.0001) %MON advcfl_vvel_max              =   3.1680952753668E-04
(PID.TID 0000.0001) %MON advcfl_wvel_max              =   1.6534339513496E-03
(PID.TID 0000.0001) %MON advcfl_W_hf_max              =   1.6534339513496E-03
(PID.TID 0000.0001) %MON pe_b_mean                    =  -8.3162519929968E-01
(PID.TID 0000.0001) %MON ke_max                       =   4.8906872513659E-06
(PID.TID 0000.0001) %MON ke_mean                      =   1.1988477323563E-08
(PID.TID 0000.0001) %MON ke_vol                       =   4.2725494227819E+12
(PID.TID 0000.0001) // =======================================================
(PID.TID 0000.0001) // End MONITOR dynamic field statistics
(PID.TID 0000.0001) // =======================================================
(PID.TID 0000.0001) // =======================================================
(PID.TID 0000.0001) // Begin OBCS MONITOR field statistics
(PID.TID 0000.0001) // =======================================================
(PID.TID 0000.0001) %MON obc_N_vVel_max               =  -1.7353609354698E-07
(PID.TID 0000.0001) %MON obc_N_vVel_min               =  -1.7353609354699E-07
(PID.TID 0000.0001) %MON obc_N_vVel_mean              =  -1.7353609354699E-07
(PID.TID 0000.0001) %MON obc_N_vVel_sd                =  -1.8301573001127E-27
(PID.TID 0000.0001) %MON obc_N_vVel_Int               =  -1.1453382174101E+01
(PID.TID 0000.0001) // =======================================================
(PID.TID 0000.0001) // End OBCS MONITOR field statistics
(PID.TID 0000.0001) // =======================================================
 cg2d: Sum(rhs),rhsMax =   4.52037479207575E+00  2.99865795716177E+02
(PID.TID 0000.0001)      cg2d_init_res =   8.89228945870366E-06
(PID.TID 0000.0001)      cg2d_iters(min,last) =      -1      80
(PID.TID 0000.0001)      cg2d_last_res =   8.35732049180273E-12
(PID.TID 0000.0001) // =======================================================
(PID.TID 0000.0001) // Begin MONITOR dynamic field statistics
(PID.TID 0000.0001) // =======================================================
(PID.TID 0000.0001) %MON time_tsnumber                =                   151
(PID.TID 0000.0001) %MON time_secondsf                =   1.5100000000000E+04
(PID.TID 0000.0001) %MON dynstat_eta_max              =   5.7964749298748E+00
(PID.TID 0000.0001) %MON dynstat_eta_min              =  -1.4196671668871E+01
(PID.TID 0000.0001) %MON dynstat_eta_mean             =  -2.5101958962243E+00
(PID.TID 0000.0001) %MON dynstat_eta_sd               =   4.9521187527413E+00
(PID.TID 0000.0001) %MON dynstat_eta_del2             =   2.0714006754631E-01
(PID.TID 0000.0001) %MON dynstat_uvel_max             =   2.5315484826258E-03
(PID.TID 0000.0001) %MON dynstat_uvel_min             =  -2.6287625929875E-03
(PID.TID 0000.0001) %MON dynstat_uvel_mean            =  -2.6695242238994E-07
(PID.TID 0000.0001) %MON dynstat_uvel_sd              =   7.7996297298312E-05
(PID.TID 0000.0001) %MON dynstat_uvel_del2            =   4.0066924716001E-07
(PID.TID 0000.0001) %MON dynstat_vvel_max             =   3.1894958252323E-03
(PID.TID 0000.0001) %MON dynstat_vvel_min             =  -2.6590447636181E-03
(PID.TID 0000.0001) %MON dynstat_vvel_mean            =   2.5120043075360E-06
(PID.TID 0000.0001) %MON dynstat_vvel_sd              =   1.3422119127180E-04
(PID.TID 0000.0001) %MON dynstat_vvel_del2            =   6.3202319538122E-07
(PID.TID 0000.0001) %MON dynstat_wvel_max             =   3.3039489554613E-04
(PID.TID 0000.0001) %MON dynstat_wvel_min             =  -2.8909953420925E-04
(PID.TID 0000.0001) %MON dynstat_wvel_mean            =   1.3146655418882E-08
(PID.TID 0000.0001) %MON dynstat_wvel_sd              =   4.7813307285884E-05
(PID.TID 0000.0001) %MON dynstat_wvel_del2            =   2.5689512294325E-07
(PID.TID 0000.0001) %MON dynstat_theta_max            =   1.2000000000000E+00
(PID.TID 0000.0001) %MON dynstat_theta_min            =  -1.0000000000000E+00
(PID.TID 0000.0001) %MON dynstat_theta_mean           =   5.6911912098808E-01
(PID.TID 0000.0001) %MON dynstat_theta_sd             =   8.6859196383729E-01
(PID.TID 0000.0001) %MON dynstat_theta_del2           =   2.0907659354688E-06
(PID.TID 0000.0001) %MON dynstat_salt_max             =   3.4700000000000E+01
(PID.TID 0000.0001) %MON dynstat_salt_min             =   3.4000000000000E+01
(PID.TID 0000.0001) %MON dynstat_salt_mean            =   3.4499261805498E+01
(PID.TID 0000.0001) %MON dynstat_salt_sd              =   2.7636931190162E-01
(PID.TID 0000.0001) %MON dynstat_salt_del2            =   6.6388184324766E-07
(PID.TID 0000.0001) %MON advcfl_uvel_max              =   2.6287625929875E-04
(PID.TID 0000.0001) %MON advcfl_vvel_max              =   3.1894958252323E-04
(PID.TID 0000.0001) %MON advcfl_wvel_max              =   1.6519744777307E-03
(PID.TID 0000.0001) %MON advcfl_W_hf_max              =   1.6519744777307E-03
(PID.TID 0000.0001) %MON pe_b_mean                    =  -8.3162632693722E-01
(PID.TID 0000.0001) %MON ke_max                       =   4.9231686827055E-06
(PID.TID 0000.0001) %MON ke_mean                      =   1.1991494931764E-08
(PID.TID 0000.0001) %MON ke_vol                       =   4.2725494369474E+12
(PID.TID 0000.0001) // =======================================================
(PID.TID 0000.0001) // End MONITOR dynamic field statistics
(PID.TID 0000.0001) // =======================================================
(PID.TID 0000.0001) // =======================================================
(PID.TID 0000.0001) // Begin OBCS MONITOR field statistics
(PID.TID 0000.0001) // =======================================================
(PID.TID 0000.0001) %MON obc_N_vVel_max               =   2.0593593625428E-06
(PID.TID 0000.0001) %MON obc_N_vVel_min               =   2.0593593625428E-06
(PID.TID 0000.0001) %MON obc_N_vVel_mean              =   2.0593593625428E-06
(PID.TID 0000.0001) %MON obc_N_vVel_sd                =   4.6441455874538E-13
(PID.TID 0000.0001) %MON obc_N_vVel_Int               =   1.3591771792782E+02
(PID.TID 0000.0001) // =======================================================
(PID.TID 0000.0001) // End OBCS MONITOR field statistics
(PID.TID 0000.0001) // =======================================================
 cg2d: Sum(rhs),rhsMax =   4.52037866412555E+00  2.99865871927829E+02
(PID.TID 0000.0001)      cg2d_init_res =   8.79045885423856E-06
(PID.TID 0000.0001)      cg2d_iters(min,last) =      -1      80
(PID.TID 0000.0001)      cg2d_last_res =   7.85859210644201E-12
(PID.TID 0000.0001) // =======================================================
(PID.TID 0000.0001) // Begin MONITOR dynamic field statistics
(PID.TID 0000.0001) // =======================================================
(PID.TID 0000.0001) %MON time_tsnumber                =                   152
(PID.TID 0000.0001) %MON time_secondsf                =   1.5200000000000E+04
(PID.TID 0000.0001) %MON dynstat_eta_max              =   5.7964627580549E+00
(PID.TID 0000.0001) %MON dynstat_eta_min              =  -1.4196693264431E+01
(PID.TID 0000.0001) %MON dynstat_eta_mean             =  -2.5101986843740E+00
(PID.TID 0000.0001) %MON dynstat_eta_sd               =   4.9521219764607E+00
(PID.TID 0000.0001) %MON dynstat_eta_del2             =   2.0714006929761E-01
(PID.TID 0000.0001) %MON dynstat_uvel_max             =   2.5396016554033E-03
(PID.TID 0000.0001) %MON dynstat_uvel_min             =  -2.6397282159039E-03
(PID.TID 0000.0001) %MON dynstat_uvel_mean            =  -2.7473339113958E-07
(PID.TID 0000.0001) %MON dynstat_uvel_sd              =   7.8160003932766E-05
(PID.TID 0000.0001) %MON dynstat_uvel_del2            =   4.0061464240885E-07
(PID.TID 0000.0001) %MON dynstat_vvel_max             =   3.2108565327391E-03
(PID.TID 0000.0001) %MON dynstat_vvel_min             =  -2.6675813655395E-03
(PID.TID 0000.0001) %MON dynstat_vvel_mean            =   5.5181537423079E-06
(PID.TID 0000.0001) %MON dynstat_vvel_sd              =   1.3412405419315E-04
(PID.TID 0000.0001) %MON dynstat_vvel_del2            =   6.2947555206348E-07
(PID.TID 0000.0001) %MON dynstat_wvel_max             =   3.2424454153199E-04
(PID.TID 0000.0001) %MON dynstat_wvel_min             =  -2.6801205142474E-04
(PID.TID 0000.0001) %MON dynstat_wvel_mean            =   1.8543281531067E-08
(PID.TID 0000.0001) %MON dynstat_wvel_sd              =   4.7585615952923E-05
(PID.TID 0000.0001) %MON dynstat_wvel_del2            =   2.5449640390991E-07
(PID.TID 0000.0001) %MON dynstat_theta_max            =   1.2000000000000E+00
(PID.TID 0000.0001) %MON dynstat_theta_min            =  -1.0000000000000E+00
(PID.TID 0000.0001) %MON dynstat_theta_mean           =   5.6911886054573E-01
(PID.TID 0000.0001) %MON dynstat_theta_sd             =   8.6859183003835E-01
(PID.TID 0000.0001) %MON dynstat_theta_del2           =   2.0817808630860E-06
(PID.TID 0000.0001) %MON dynstat_salt_max             =   3.4700000000000E+01
(PID.TID 0000.0001) %MON dynstat_salt_min             =   3.4000000000000E+01
(PID.TID 0000.0001) %MON dynstat_salt_mean            =   3.4499261701568E+01
(PID.TID 0000.0001) %MON dynstat_salt_sd              =   2.7636926367223E-01
(PID.TID 0000.0001) %MON dynstat_salt_del2            =   6.6106901153498E-07
(PID.TID 0000.0001) %MON advcfl_uvel_max              =   2.6397282159039E-04
(PID.TID 0000.0001) %MON advcfl_vvel_max              =   3.2108565327391E-04
(PID.TID 0000.0001) %MON advcfl_wvel_max              =   1.6212227076599E-03
(PID.TID 0000.0001) %MON advcfl_W_hf_max              =   1.6212227076599E-03
(PID.TID 0000.0001) %MON pe_b_mean                    =  -8.3162821522476E-01
(PID.TID 0000.0001) %MON ke_max                       =   4.9550684305179E-06
(PID.TID 0000.0001) %MON ke_mean                      =   1.2003001343464E-08
(PID.TID 0000.0001) %MON ke_vol                       =   4.2725494363764E+12
(PID.TID 0000.0001) // =======================================================
(PID.TID 0000.0001) // End MONITOR dynamic field statistics
(PID.TID 0000.0001) // =======================================================
(PID.TID 0000.0001) // =======================================================
(PID.TID 0000.0001) // Begin OBCS MONITOR field statistics
(PID.TID 0000.0001) // =======================================================
(PID.TID 0000.0001) %MON obc_N_vVel_max               =   4.4822873571341E-06
(PID.TID 0000.0001) %MON obc_N_vVel_min               =   4.4822873571340E-06
(PID.TID 0000.0001) %MON obc_N_vVel_mean              =   4.4822873571340E-06
(PID.TID 0000.0001) %MON obc_N_vVel_sd                =  -1.8094575899597E-25
(PID.TID 0000.0001) %MON obc_N_vVel_Int               =   2.9583096557085E+02
(PID.TID 0000.0001) // =======================================================
(PID.TID 0000.0001) // End OBCS MONITOR field statistics
(PID.TID 0000.0001) // =======================================================
 cg2d: Sum(rhs),rhsMax =   4.52038762305232E+00  2.99865947341362E+02
(PID.TID 0000.0001)      cg2d_init_res =   8.69945487131387E-06
(PID.TID 0000.0001)      cg2d_iters(min,last) =      -1      78
(PID.TID 0000.0001)      cg2d_last_res =   9.57014422376265E-12
(PID.TID 0000.0001) // =======================================================
(PID.TID 0000.0001) // Begin MONITOR dynamic field statistics
(PID.TID 0000.0001) // =======================================================
(PID.TID 0000.0001) %MON time_tsnumber                =                   153
(PID.TID 0000.0001) %MON time_secondsf                =   1.5300000000000E+04
(PID.TID 0000.0001) %MON dynstat_eta_max              =   5.7964462381034E+00
(PID.TID 0000.0001) %MON dynstat_eta_min              =  -1.4196717375551E+01
(PID.TID 0000.0001) %MON dynstat_eta_mean             =  -2.5102042906236E+00
(PID.TID 0000.0001) %MON dynstat_eta_sd               =   4.9521261716555E+00
(PID.TID 0000.0001) %MON dynstat_eta_del2             =   2.0714007104016E-01
(PID.TID 0000.0001) %MON dynstat_uvel_max             =   2.5474547816842E-03
(PID.TID 0000.0001) %MON dynstat_uvel_min             =  -2.6505195586424E-03
(PID.TID 0000.0001) %MON dynstat_uvel_mean            =  -2.7784362073918E-07
(PID.TID 0000.0001) %MON dynstat_uvel_sd              =   7.8324283290333E-05
(PID.TID 0000.0001) %MON dynstat_uvel_del2            =   4.0053565622646E-07
(PID.TID 0000.0001) %MON dynstat_vvel_max             =   3.2320646045374E-03
(PID.TID 0000.0001) %MON dynstat_vvel_min             =  -2.6759525959754E-03
(PID.TID 0000.0001) %MON dynstat_vvel_mean            =   8.5784543641543E-06
(PID.TID 0000.0001) %MON dynstat_vvel_sd              =   1.3403548676898E-04
(PID.TID 0000.0001) %MON dynstat_vvel_del2            =   6.2708414233566E-07
(PID.TID 0000.0001) %MON dynstat_wvel_max             =   3.1230078652466E-04
(PID.TID 0000.0001) %MON dynstat_wvel_min             =  -2.5560859293547E-04
(PID.TID 0000.0001) %MON dynstat_wvel_mean            =   2.3271239049251E-08
(PID.TID 0000.0001) %MON dynstat_wvel_sd              =   4.7365013055669E-05
(PID.TID 0000.0001) %MON dynstat_wvel_del2            =   2.5225047356589E-07
(PID.TID 0000.0001) %MON dynstat_theta_max            =   1.2000000000000E+00
(PID.TID 0000.0001) %MON dynstat_theta_min            =  -1.0000000000000E+00
(PID.TID 0000.0001) %MON dynstat_theta_mean           =   5.6911860125726E-01
(PID.TID 0000.0001) %MON dynstat_theta_sd             =   8.6859169566834E-01
(PID.TID 0000.0001) %MON dynstat_theta_del2           =   2.0727292505371E-06
(PID.TID 0000.0001) %MON dynstat_salt_max             =   3.4700000000000E+01
(PID.TID 0000.0001) %MON dynstat_salt_min             =   3.4000000000000E+01
(PID.TID 0000.0001) %MON dynstat_salt_mean            =   3.4499261598004E+01
(PID.TID 0000.0001) %MON dynstat_salt_sd              =   2.7636921526088E-01
(PID.TID 0000.0001) %MON dynstat_salt_del2            =   6.5823721353533E-07
(PID.TID 0000.0001) %MON advcfl_uvel_max              =   2.6505195586424E-04
(PID.TID 0000.0001) %MON advcfl_vvel_max              =   3.2320646045374E-04
(PID.TID 0000.0001) %MON advcfl_wvel_max              =   1.5615039326233E-03
(PID.TID 0000.0001) %MON advcfl_W_hf_max              =   1.5615039326233E-03
(PID.TID 0000.0001) %MON pe_b_mean                    =  -8.3163087296492E-01
(PID.TID 0000.0001) %MON ke_max                       =   4.9863578763813E-06
(PID.TID 0000.0001) %MON ke_mean                      =   1.2025182425989E-08
(PID.TID 0000.0001) %MON ke_vol                       =   4.2725494198148E+12
(PID.TID 0000.0001) // =======================================================
(PID.TID 0000.0001) // End MONITOR dynamic field statistics
(PID.TID 0000.0001) // =======================================================
(PID.TID 0000.0001) // =======================================================
(PID.TID 0000.0001) // Begin OBCS MONITOR field statistics
(PID.TID 0000.0001) // =======================================================
(PID.TID 0000.0001) %MON obc_N_vVel_max               =   7.0186903869348E-06
(PID.TID 0000.0001) %MON obc_N_vVel_min               =   7.0186903869346E-06
(PID.TID 0000.0001) %MON obc_N_vVel_mean              =   7.0186903869346E-06
(PID.TID 0000.0001) %MON obc_N_vVel_sd                =   1.6747116959159E-12
(PID.TID 0000.0001) %MON obc_N_vVel_Int               =   4.6323356553768E+02
(PID.TID 0000.0001) // =======================================================
(PID.TID 0000.0001) // End OBCS MONITOR field statistics
(PID.TID 0000.0001) // =======================================================
 cg2d: Sum(rhs),rhsMax =   4.52040174517451E+00  2.99866022058667E+02
(PID.TID 0000.0001)      cg2d_init_res =   8.62566375335494E-06
(PID.TID 0000.0001)      cg2d_iters(min,last) =      -1      78
(PID.TID 0000.0001)      cg2d_last_res =   8.54256581238493E-12
(PID.TID 0000.0001) // =======================================================
(PID.TID 0000.0001) // Begin MONITOR dynamic field statistics
(PID.TID 0000.0001) // =======================================================
(PID.TID 0000.0001) %MON time_tsnumber                =                   154
(PID.TID 0000.0001) %MON time_secondsf                =   1.5400000000000E+04
(PID.TID 0000.0001) %MON dynstat_eta_max              =   5.7964254155448E+00
(PID.TID 0000.0001) %MON dynstat_eta_min              =  -1.4196744079961E+01
(PID.TID 0000.0001) %MON dynstat_eta_mean             =  -2.5102127582084E+00
(PID.TID 0000.0001) %MON dynstat_eta_sd               =   4.9521312867809E+00
(PID.TID 0000.0001) %MON dynstat_eta_del2             =   2.0714007277814E-01
(PID.TID 0000.0001) %MON dynstat_uvel_max             =   2.5551082483730E-03
(PID.TID 0000.0001) %MON dynstat_uvel_min             =  -2.6611375776824E-03
(PID.TID 0000.0001) %MON dynstat_uvel_mean            =  -2.7644491772323E-07
(PID.TID 0000.0001) %MON dynstat_uvel_sd              =   7.8489275389583E-05
(PID.TID 0000.0001) %MON dynstat_uvel_del2            =   4.0043282559450E-07
(PID.TID 0000.0001) %MON dynstat_vvel_max             =   3.2530144216558E-03
(PID.TID 0000.0001) %MON dynstat_vvel_min             =  -2.6842637786322E-03
(PID.TID 0000.0001) %MON dynstat_vvel_mean            =   1.1608307757395E-05
(PID.TID 0000.0001) %MON dynstat_vvel_sd              =   1.3396648661875E-04
(PID.TID 0000.0001) %MON dynstat_vvel_del2            =   6.2504175626520E-07
(PID.TID 0000.0001) %MON dynstat_wvel_max             =   2.9474113122604E-04
(PID.TID 0000.0001) %MON dynstat_wvel_min             =  -2.3974321714404E-04
(PID.TID 0000.0001) %MON dynstat_wvel_mean            =   2.7248691062496E-08
(PID.TID 0000.0001) %MON dynstat_wvel_sd              =   4.7166459594463E-05
(PID.TID 0000.0001) %MON dynstat_wvel_del2            =   2.5036046992167E-07
(PID.TID 0000.0001) %MON dynstat_theta_max            =   1.2000000000000E+00
(PID.TID 0000.0001) %MON dynstat_theta_min            =  -1.0000000000000E+00
(PID.TID 0000.0001) %MON dynstat_theta_mean           =   5.6911834312399E-01
(PID.TID 0000.0001) %MON dynstat_theta_sd             =   8.6859156083051E-01
(PID.TID 0000.0001) %MON dynstat_theta_del2           =   2.0634576504622E-06
(PID.TID 0000.0001) %MON dynstat_salt_max             =   3.4700000000000E+01
(PID.TID 0000.0001) %MON dynstat_salt_min             =   3.4000000000000E+01
(PID.TID 0000.0001) %MON dynstat_salt_mean            =   3.4499261494807E+01
(PID.TID 0000.0001) %MON dynstat_salt_sd              =   2.7636916670032E-01
(PID.TID 0000.0001) %MON dynstat_salt_del2            =   6.5533739914285E-07
(PID.TID 0000.0001) %MON advcfl_uvel_max              =   2.6611375776824E-04
(PID.TID 0000.0001) %MON advcfl_vvel_max              =   3.2530144216558E-04
(PID.TID 0000.0001) %MON advcfl_wvel_max              =   1.4737056561302E-03
(PID.TID 0000.0001) %MON advcfl_W_hf_max              =   1.4737056561302E-03
(PID.TID 0000.0001) %MON pe_b_mean                    =  -8.3163428800489E-01
(PID.TID 0000.0001) %MON ke_max                       =   5.0170097849792E-06
(PID.TID 0000.0001) %MON ke_mean                      =   1.2059030529186E-08
(PID.TID 0000.0001) %MON ke_vol                       =   4.2725493865137E+12
(PID.TID 0000.0001) // =======================================================
(PID.TID 0000.0001) // End MONITOR dynamic field statistics
(PID.TID 0000.0001) // =======================================================
(PID.TID 0000.0001) // =======================================================
(PID.TID 0000.0001) // Begin OBCS MONITOR field statistics
(PID.TID 0000.0001) // =======================================================
(PID.TID 0000.0001) %MON obc_N_vVel_max               =   9.5940102674516E-06
(PID.TID 0000.0001) %MON obc_N_vVel_min               =   9.5940102674514E-06
(PID.TID 0000.0001) %MON obc_N_vVel_mean              =   9.5940102674516E-06
(PID.TID 0000.0001) %MON obc_N_vVel_sd                =  -1.3700178895410E-24
(PID.TID 0000.0001) %MON obc_N_vVel_Int               =   6.3320467765181E+02
(PID.TID 0000.0001) // =======================================================
(PID.TID 0000.0001) // End OBCS MONITOR field statistics
(PID.TID 0000.0001) // =======================================================
 cg2d: Sum(rhs),rhsMax =   4.52042096482899E+00  2.99866096212118E+02
(PID.TID 0000.0001)      cg2d_init_res =   8.57425026821495E-06
(PID.TID 0000.0001)      cg2d_iters(min,last) =      -1      79
(PID.TID 0000.0001)      cg2d_last_res =   9.65265101792833E-12
(PID.TID 0000.0001) // =======================================================
(PID.TID 0000.0001) // Begin MONITOR dynamic field statistics
(PID.TID 0000.0001) // =======================================================
(PID.TID 0000.0001) %MON time_tsnumber                =                   155
(PID.TID 0000.0001) %MON time_secondsf                =   1.5500000000000E+04
(PID.TID 0000.0001) %MON dynstat_eta_max              =   5.7964004419509E+00
(PID.TID 0000.0001) %MON dynstat_eta_min              =  -1.4196773380947E+01
(PID.TID 0000.0001) %MON dynstat_eta_mean             =  -2.5102240517753E+00
(PID.TID 0000.0001) %MON dynstat_eta_sd               =   4.9521372493130E+00
(PID.TID 0000.0001) %MON dynstat_eta_del2             =   2.0714007451590E-01
(PID.TID 0000.0001) %MON dynstat_uvel_max             =   2.5625622609660E-03
(PID.TID 0000.0001) %MON dynstat_uvel_min             =  -2.6715833896240E-03
(PID.TID 0000.0001) %MON dynstat_uvel_mean            =  -2.7081172452852E-07
(PID.TID 0000.0001) %MON dynstat_uvel_sd              =   7.8655066436147E-05
(PID.TID 0000.0001) %MON dynstat_uvel_del2            =   4.0030668042024E-07
(PID.TID 0000.0001) %MON dynstat_vvel_max             =   3.2736099145669E-03
(PID.TID 0000.0001) %MON dynstat_vvel_min             =  -2.6926107011649E-03
(PID.TID 0000.0001) %MON dynstat_vvel_mean            =   1.4529442499826E-05
(PID.TID 0000.0001) %MON dynstat_vvel_sd              =   1.3392529986197E-04
(PID.TID 0000.0001) %MON dynstat_vvel_del2            =   6.2348527302216E-07
(PID.TID 0000.0001) %MON dynstat_wvel_max             =   2.7675799056401E-04
(PID.TID 0000.0001) %MON dynstat_wvel_min             =  -2.6100574922145E-04
(PID.TID 0000.0001) %MON dynstat_wvel_mean            =   3.0419160959964E-08
(PID.TID 0000.0001) %MON dynstat_wvel_sd              =   4.7001544705999E-05
(PID.TID 0000.0001) %MON dynstat_wvel_del2            =   2.4897577795257E-07
(PID.TID 0000.0001) %MON dynstat_theta_max            =   1.2000000000000E+00
(PID.TID 0000.0001) %MON dynstat_theta_min            =  -1.0000000000000E+00
(PID.TID 0000.0001) %MON dynstat_theta_mean           =   5.6911808611692E-01
(PID.TID 0000.0001) %MON dynstat_theta_sd             =   8.6859142560020E-01
(PID.TID 0000.0001) %MON dynstat_theta_del2           =   2.0538580369535E-06
(PID.TID 0000.0001) %MON dynstat_salt_max             =   3.4700000000000E+01
(PID.TID 0000.0001) %MON dynstat_salt_min             =   3.4000000000000E+01
(PID.TID 0000.0001) %MON dynstat_salt_mean            =   3.4499261391967E+01
(PID.TID 0000.0001) %MON dynstat_salt_sd              =   2.7636911801452E-01
(PID.TID 0000.0001) %MON dynstat_salt_del2            =   6.5233475022590E-07
(PID.TID 0000.0001) %MON advcfl_uvel_max              =   2.6715833896240E-04
(PID.TID 0000.0001) %MON advcfl_vvel_max              =   3.2736099145669E-04
(PID.TID 0000.0001) %MON advcfl_wvel_max              =   1.3837899528200E-03
(PID.TID 0000.0001) %MON advcfl_W_hf_max              =   1.3837899528200E-03
(PID.TID 0000.0001) %MON pe_b_mean                    =  -8.3163842892802E-01
(PID.TID 0000.0001) %MON ke_max                       =   5.0469989278049E-06
(PID.TID 0000.0001) %MON ke_mean                      =   1.2104240316954E-08
(PID.TID 0000.0001) %MON ke_vol                       =   4.2725493362162E+12
(PID.TID 0000.0001) // =======================================================
(PID.TID 0000.0001) // End MONITOR dynamic field statistics
(PID.TID 0000.0001) // =======================================================
(PID.TID 0000.0001) // =======================================================
(PID.TID 0000.0001) // Begin OBCS MONITOR field statistics
(PID.TID 0000.0001) // =======================================================
(PID.TID 0000.0001) %MON obc_N_vVel_max               =   1.2137511523412E-05
(PID.TID 0000.0001) %MON obc_N_vVel_min               =   1.2137511523412E-05
(PID.TID 0000.0001) %MON obc_N_vVel_mean              =   1.2137511523412E-05
(PID.TID 0000.0001) %MON obc_N_vVel_sd                =   1.5670649136257E-12
(PID.TID 0000.0001) %MON obc_N_vVel_Int               =   8.0107576054517E+02
(PID.TID 0000.0001) // =======================================================
(PID.TID 0000.0001) // End OBCS MONITOR field statistics
(PID.TID 0000.0001) // =======================================================
 cg2d: Sum(rhs),rhsMax =   4.52044508539727E+00  2.99866169956575E+02
(PID.TID 0000.0001)      cg2d_init_res =   8.54824348310750E-06
(PID.TID 0000.0001)      cg2d_iters(min,last) =      -1      80
(PID.TID 0000.0001)      cg2d_last_res =   8.66452670744387E-12
(PID.TID 0000.0001) // =======================================================
(PID.TID 0000.0001) // Begin MONITOR dynamic field statistics
(PID.TID 0000.0001) // =======================================================
(PID.TID 0000.0001) %MON time_tsnumber                =                   156
(PID.TID 0000.0001) %MON time_secondsf                =   1.5600000000000E+04
(PID.TID 0000.0001) %MON dynstat_eta_max              =   5.7963715709551E+00
(PID.TID 0000.0001) %MON dynstat_eta_min              =  -1.4196805212475E+01
(PID.TID 0000.0001) %MON dynstat_eta_mean             =  -2.5102380634391E+00
(PID.TID 0000.0001) %MON dynstat_eta_sd               =   4.9521439690687E+00
(PID.TID 0000.0001) %MON dynstat_eta_del2             =   2.0714007625862E-01
(PID.TID 0000.0001) %MON dynstat_uvel_max             =   2.5698169276396E-03
(PID.TID 0000.0001) %MON dynstat_uvel_min             =  -2.6818583033332E-03
(PID.TID 0000.0001) %MON dynstat_uvel_mean            =  -2.6132383060912E-07
(PID.TID 0000.0001) %MON dynstat_uvel_sd              =   7.8821692602513E-05
(PID.TID 0000.0001) %MON dynstat_uvel_del2            =   4.0015775473445E-07
(PID.TID 0000.0001) %MON dynstat_vvel_max             =   3.2937665284472E-03
(PID.TID 0000.0001) %MON dynstat_vvel_min             =  -2.7010777498049E-03
(PID.TID 0000.0001) %MON dynstat_vvel_mean            =   1.7271583119682E-05
(PID.TID 0000.0001) %MON dynstat_vvel_sd              =   1.3391640704771E-04
(PID.TID 0000.0001) %MON dynstat_vvel_del2            =   6.2247969486098E-07
(PID.TID 0000.0001) %MON dynstat_wvel_max             =   2.6978494071863E-04
(PID.TID 0000.0001) %MON dynstat_wvel_min             =  -2.8052698748734E-04
(PID.TID 0000.0001) %MON dynstat_wvel_mean            =   3.2751299868743E-08
(PID.TID 0000.0001) %MON dynstat_wvel_sd              =   4.6877013984479E-05
(PID.TID 0000.0001) %MON dynstat_wvel_del2            =   2.4817184564682E-07
(PID.TID 0000.0001) %MON dynstat_theta_max            =   1.2000000000000E+00
(PID.TID 0000.0001) %MON dynstat_theta_min            =  -1.0000000000000E+00
(PID.TID 0000.0001) %MON dynstat_theta_mean           =   5.6911783017820E-01
(PID.TID 0000.0001) %MON dynstat_theta_sd             =   8.6859129004553E-01
(PID.TID 0000.0001) %MON dynstat_theta_del2           =   2.0438799817146E-06
(PID.TID 0000.0001) %MON dynstat_salt_max             =   3.4700000000000E+01
(PID.TID 0000.0001) %MON dynstat_salt_min             =   3.4000000000000E+01
(PID.TID 0000.0001) %MON dynstat_salt_mean            =   3.4499261289465E+01
(PID.TID 0000.0001) %MON dynstat_salt_sd              =   2.7636906922497E-01
(PID.TID 0000.0001) %MON dynstat_salt_del2            =   6.4921303086595E-07
(PID.TID 0000.0001) %MON advcfl_uvel_max              =   2.6818583033332E-04
(PID.TID 0000.0001) %MON advcfl_vvel_max              =   3.2937665284472E-04
(PID.TID 0000.0001) %MON advcfl_wvel_max              =   1.4026349374367E-03
(PID.TID 0000.0001) %MON advcfl_W_hf_max              =   1.4026349374367E-03
(PID.TID 0000.0001) %MON pe_b_mean                    =  -8.3164324714173E-01
(PID.TID 0000.0001) %MON ke_max                       =   5.0763027305413E-06
(PID.TID 0000.0001) %MON ke_mean                      =   1.2159252112848E-08
(PID.TID 0000.0001) %MON ke_vol                       =   4.2725492691325E+12
(PID.TID 0000.0001) // =======================================================
(PID.TID 0000.0001) // End MONITOR dynamic field statistics
(PID.TID 0000.0001) // =======================================================
(PID.TID 0000.0001) // =======================================================
(PID.TID 0000.0001) // Begin OBCS MONITOR field statistics
(PID.TID 0000.0001) // =======================================================
(PID.TID 0000.0001) %MON obc_N_vVel_max               =   1.4583919119710E-05
(PID.TID 0000.0001) %MON obc_N_vVel_min               =   1.4583919119710E-05
(PID.TID 0000.0001) %MON obc_N_vVel_mean              =   1.4583919119710E-05
(PID.TID 0000.0001) %MON obc_N_vVel_sd                =  -6.0746076234363E-24
(PID.TID 0000.0001) %MON obc_N_vVel_Int               =   9.6253866190085E+02
(PID.TID 0000.0001) // =======================================================
(PID.TID 0000.0001) // End OBCS MONITOR field statistics
(PID.TID 0000.0001) // =======================================================
 cg2d: Sum(rhs),rhsMax =   4.52047379307400E+00  2.99866243465012E+02
(PID.TID 0000.0001)      cg2d_init_res =   8.54879982559004E-06
(PID.TID 0000.0001)      cg2d_iters(min,last) =      -1      80
(PID.TID 0000.0001)      cg2d_last_res =   9.60182736660020E-12
(PID.TID 0000.0001) // =======================================================
(PID.TID 0000.0001) // Begin MONITOR dynamic field statistics
(PID.TID 0000.0001) // =======================================================
(PID.TID 0000.0001) %MON time_tsnumber                =                   157
(PID.TID 0000.0001) %MON time_secondsf                =   1.5700000000000E+04
(PID.TID 0000.0001) %MON dynstat_eta_max              =   5.7963391406460E+00
(PID.TID 0000.0001) %MON dynstat_eta_min              =  -1.4196839446770E+01
(PID.TID 0000.0001) %MON dynstat_eta_mean             =  -2.5102546203910E+00
(PID.TID 0000.0001) %MON dynstat_eta_sd               =   4.9521513416584E+00
(PID.TID 0000.0001) %MON dynstat_eta_del2             =   2.0714007800990E-01
(PID.TID 0000.0001) %MON dynstat_uvel_max             =   2.5768722569453E-03
(PID.TID 0000.0001) %MON dynstat_uvel_min             =  -2.6919637484042E-03
(PID.TID 0000.0001) %MON dynstat_uvel_mean            =  -2.4845221272866E-07
(PID.TID 0000.0001) %MON dynstat_uvel_sd              =   7.8989145396981E-05
(PID.TID 0000.0001) %MON dynstat_uvel_del2            =   3.9998658722476E-07
(PID.TID 0000.0001) %MON dynstat_vvel_max             =   3.3134126921617E-03
(PID.TID 0000.0001) %MON dynstat_vvel_min             =  -2.7097365065298E-03
(PID.TID 0000.0001) %MON dynstat_vvel_mean            =   1.9773793398434E-05
(PID.TID 0000.0001) %MON dynstat_vvel_sd              =   1.3394004040123E-04
(PID.TID 0000.0001) %MON dynstat_vvel_del2            =   6.2201250040667E-07
(PID.TID 0000.0001) %MON dynstat_wvel_max             =   2.7010542093083E-04
(PID.TID 0000.0001) %MON dynstat_wvel_min             =  -2.9406210688457E-04
(PID.TID 0000.0001) %MON dynstat_wvel_mean            =   3.4237932642612E-08
(PID.TID 0000.0001) %MON dynstat_wvel_sd              =   4.6793997558308E-05
(PID.TID 0000.0001) %MON dynstat_wvel_del2            =   2.4794123269537E-07
(PID.TID 0000.0001) %MON dynstat_theta_max            =   1.2000000000000E+00
(PID.TID 0000.0001) %MON dynstat_theta_min            =  -1.0000000000000E+00
(PID.TID 0000.0001) %MON dynstat_theta_mean           =   5.6911757522558E-01
(PID.TID 0000.0001) %MON dynstat_theta_sd             =   8.6859115423425E-01
(PID.TID 0000.0001) %MON dynstat_theta_del2           =   2.0335416686957E-06
(PID.TID 0000.0001) %MON dynstat_salt_max             =   3.4700000000000E+01
(PID.TID 0000.0001) %MON dynstat_salt_min             =   3.4000000000000E+01
(PID.TID 0000.0001) %MON dynstat_salt_mean            =   3.4499261187275E+01
(PID.TID 0000.0001) %MON dynstat_salt_sd              =   2.7636902035329E-01
(PID.TID 0000.0001) %MON dynstat_salt_del2            =   6.4597783972267E-07
(PID.TID 0000.0001) %MON advcfl_uvel_max              =   2.6919637484042E-04
(PID.TID 0000.0001) %MON advcfl_vvel_max              =   3.3134126921617E-04
(PID.TID 0000.0001) %MON advcfl_wvel_max              =   1.4703105344228E-03
(PID.TID 0000.0001) %MON advcfl_W_hf_max              =   1.4703105344228E-03
(PID.TID 0000.0001) %MON pe_b_mean                    =  -8.3164867928857E-01
(PID.TID 0000.0001) %MON ke_max                       =   5.1049016349878E-06
(PID.TID 0000.0001) %MON ke_mean                      =   1.2221430220778E-08
(PID.TID 0000.0001) %MON ke_vol                       =   4.2725491859032E+12
(PID.TID 0000.0001) // =======================================================
(PID.TID 0000.0001) // End MONITOR dynamic field statistics
(PID.TID 0000.0001) // =======================================================
(PID.TID 0000.0001) // =======================================================
(PID.TID 0000.0001) // Begin OBCS MONITOR field statistics
(PID.TID 0000.0001) // =======================================================
(PID.TID 0000.0001) %MON obc_N_vVel_max               =   1.6874797939067E-05
(PID.TID 0000.0001) %MON obc_N_vVel_min               =   1.6874797939067E-05
(PID.TID 0000.0001) %MON obc_N_vVel_mean              =   1.6874797939067E-05
(PID.TID 0000.0001) %MON obc_N_vVel_sd                =  -1.7732684381606E-23
(PID.TID 0000.0001) %MON obc_N_vVel_Int               =   1.1137366639784E+03
(PID.TID 0000.0001) // =======================================================
(PID.TID 0000.0001) // End OBCS MONITOR field statistics
(PID.TID 0000.0001) // =======================================================
 cg2d: Sum(rhs),rhsMax =   4.52050667289017E+00  2.99866316917136E+02
(PID.TID 0000.0001)      cg2d_init_res =   8.57366373988794E-06
(PID.TID 0000.0001)      cg2d_iters(min,last) =      -1      81
(PID.TID 0000.0001)      cg2d_last_res =   8.62361941010253E-12
(PID.TID 0000.0001) // =======================================================
(PID.TID 0000.0001) // Begin MONITOR dynamic field statistics
(PID.TID 0000.0001) // =======================================================
(PID.TID 0000.0001) %MON time_tsnumber                =                   158
(PID.TID 0000.0001) %MON time_secondsf                =   1.5800000000000E+04
(PID.TID 0000.0001) %MON dynstat_eta_max              =   5.7963035640191E+00
(PID.TID 0000.0001) %MON dynstat_eta_min              =  -1.4196875900144E+01
(PID.TID 0000.0001) %MON dynstat_eta_mean             =  -2.5102734937017E+00
(PID.TID 0000.0001) %MON dynstat_eta_sd               =   4.9521592522803E+00
(PID.TID 0000.0001) %MON dynstat_eta_del2             =   2.0714007977389E-01
(PID.TID 0000.0001) %MON dynstat_uvel_max             =   2.5837281822518E-03
(PID.TID 0000.0001) %MON dynstat_uvel_min             =  -2.7019013128040E-03
(PID.TID 0000.0001) %MON dynstat_uvel_mean            =  -2.3274352192991E-07
(PID.TID 0000.0001) %MON dynstat_uvel_sd              =   7.9157378656100E-05
(PID.TID 0000.0001) %MON dynstat_uvel_del2            =   3.9979372595281E-07
(PID.TID 0000.0001) %MON dynstat_vvel_max             =   3.3324908290400E-03
(PID.TID 0000.0001) %MON dynstat_vvel_min             =  -2.7186446403888E-03
(PID.TID 0000.0001) %MON dynstat_vvel_mean            =   2.1985479951494E-05
(PID.TID 0000.0001) %MON dynstat_vvel_sd              =   1.3399227763409E-04
(PID.TID 0000.0001) %MON dynstat_vvel_del2            =   6.2199890608011E-07
(PID.TID 0000.0001) %MON dynstat_wvel_max             =   2.8292209334489E-04
(PID.TID 0000.0001) %MON dynstat_wvel_min             =  -3.0134864943050E-04
(PID.TID 0000.0001) %MON dynstat_wvel_mean            =   3.4895001192724E-08
(PID.TID 0000.0001) %MON dynstat_wvel_sd              =   4.6748054337528E-05
(PID.TID 0000.0001) %MON dynstat_wvel_del2            =   2.4819775996785E-07
(PID.TID 0000.0001) %MON dynstat_theta_max            =   1.2000000000000E+00
(PID.TID 0000.0001) %MON dynstat_theta_min            =  -1.0000000000000E+00
(PID.TID 0000.0001) %MON dynstat_theta_mean           =   5.6911732115590E-01
(PID.TID 0000.0001) %MON dynstat_theta_sd             =   8.6859101817507E-01
(PID.TID 0000.0001) %MON dynstat_theta_del2           =   2.0229147430637E-06
(PID.TID 0000.0001) %MON dynstat_salt_max             =   3.4700000000000E+01
(PID.TID 0000.0001) %MON dynstat_salt_min             =   3.4000000000000E+01
(PID.TID 0000.0001) %MON dynstat_salt_mean            =   3.4499261085366E+01
(PID.TID 0000.0001) %MON dynstat_salt_sd              =   2.7636897140228E-01
(PID.TID 0000.0001) %MON dynstat_salt_del2            =   6.4265187635764E-07
(PID.TID 0000.0001) %MON advcfl_uvel_max              =   2.7019013128040E-04
(PID.TID 0000.0001) %MON advcfl_vvel_max              =   3.3324908290400E-04
(PID.TID 0000.0001) %MON advcfl_wvel_max              =   1.5067432471525E-03
(PID.TID 0000.0001) %MON advcfl_W_hf_max              =   1.5067432471525E-03
(PID.TID 0000.0001) %MON pe_b_mean                    =  -8.3165464989245E-01
(PID.TID 0000.0001) %MON ke_max                       =   5.1327796164133E-06
(PID.TID 0000.0001) %MON ke_mean                      =   1.2287349757528E-08
(PID.TID 0000.0001) %MON ke_vol                       =   4.2725490875549E+12
(PID.TID 0000.0001) // =======================================================
(PID.TID 0000.0001) // End MONITOR dynamic field statistics
(PID.TID 0000.0001) // =======================================================
(PID.TID 0000.0001) // =======================================================
(PID.TID 0000.0001) // Begin OBCS MONITOR field statistics
(PID.TID 0000.0001) // =======================================================
(PID.TID 0000.0001) %MON obc_N_vVel_max               =   1.8959637905774E-05
(PID.TID 0000.0001) %MON obc_N_vVel_min               =   1.8959637905774E-05
(PID.TID 0000.0001) %MON obc_N_vVel_mean              =   1.8959637905774E-05
(PID.TID 0000.0001) %MON obc_N_vVel_sd                =   2.9906337745083E-12
(PID.TID 0000.0001) %MON obc_N_vVel_Int               =   1.2513361017811E+03
(PID.TID 0000.0001) // =======================================================
(PID.TID 0000.0001) // End OBCS MONITOR field statistics
(PID.TID 0000.0001) // =======================================================
 cg2d: Sum(rhs),rhsMax =   4.52054322632345E+00  2.99866390495823E+02
(PID.TID 0000.0001)      cg2d_init_res =   8.61870438057978E-06
(PID.TID 0000.0001)      cg2d_iters(min,last) =      -1      81
(PID.TID 0000.0001)      cg2d_last_res =   8.88831030459743E-12
(PID.TID 0000.0001) // =======================================================
(PID.TID 0000.0001) // Begin MONITOR dynamic field statistics
(PID.TID 0000.0001) // =======================================================
(PID.TID 0000.0001) %MON time_tsnumber                =                   159
(PID.TID 0000.0001) %MON time_secondsf                =   1.5900000000000E+04
(PID.TID 0000.0001) %MON dynstat_eta_max              =   5.7962653104313E+00
(PID.TID 0000.0001) %MON dynstat_eta_min              =  -1.4196914343314E+01
(PID.TID 0000.0001) %MON dynstat_eta_mean             =  -2.5102944080703E+00
(PID.TID 0000.0001) %MON dynstat_eta_sd               =   4.9521675793574E+00
(PID.TID 0000.0001) %MON dynstat_eta_del2             =   2.0714008155388E-01
(PID.TID 0000.0001) %MON dynstat_uvel_max             =   2.5903845829411E-03
(PID.TID 0000.0001) %MON dynstat_uvel_min             =  -2.7116726796947E-03
(PID.TID 0000.0001) %MON dynstat_uvel_mean            =  -2.1479941302718E-07
(PID.TID 0000.0001) %MON dynstat_uvel_sd              =   7.9326315268886E-05
(PID.TID 0000.0001) %MON dynstat_uvel_del2            =   3.9957972735688E-07
(PID.TID 0000.0001) %MON dynstat_vvel_max             =   3.3509580221498E-03
(PID.TID 0000.0001) %MON dynstat_vvel_min             =  -2.7278453300061E-03
(PID.TID 0000.0001) %MON dynstat_vvel_mean            =   2.3867061514030E-05
(PID.TID 0000.0001) %MON dynstat_vvel_sd              =   1.3406568128222E-04
(PID.TID 0000.0001) %MON dynstat_vvel_del2            =   6.2229682056742E-07
(PID.TID 0000.0001) %MON dynstat_wvel_max             =   2.9321569340830E-04
(PID.TID 0000.0001) %MON dynstat_wvel_min             =  -3.1282658651038E-04
(PID.TID 0000.0001) %MON dynstat_wvel_mean            =   3.4759314055871E-08
(PID.TID 0000.0001) %MON dynstat_wvel_sd              =   4.6729986834672E-05
(PID.TID 0000.0001) %MON dynstat_wvel_del2            =   2.4879254448561E-07
(PID.TID 0000.0001) %MON dynstat_theta_max            =   1.2000000000000E+00
(PID.TID 0000.0001) %MON dynstat_theta_min            =  -1.0000000000000E+00
(PID.TID 0000.0001) %MON dynstat_theta_mean           =   5.6911706784903E-01
(PID.TID 0000.0001) %MON dynstat_theta_sd             =   8.6859088195079E-01
(PID.TID 0000.0001) %MON dynstat_theta_del2           =   2.0121120457067E-06
(PID.TID 0000.0001) %MON dynstat_salt_max             =   3.4700000000000E+01
(PID.TID 0000.0001) %MON dynstat_salt_min             =   3.4000000000000E+01
(PID.TID 0000.0001) %MON dynstat_salt_mean            =   3.4499260983698E+01
(PID.TID 0000.0001) %MON dynstat_salt_sd              =   2.7636892239821E-01
(PID.TID 0000.0001) %MON dynstat_salt_del2            =   6.3927082286867E-07
(PID.TID 0000.0001) %MON advcfl_uvel_max              =   2.7116726796947E-04
(PID.TID 0000.0001) %MON advcfl_vvel_max              =   3.3509580221498E-04
(PID.TID 0000.0001) %MON advcfl_wvel_max              =   1.5641329325519E-03
(PID.TID 0000.0001) %MON advcfl_W_hf_max              =   1.5641329325519E-03
(PID.TID 0000.0001) %MON pe_b_mean                    =  -8.3166107415186E-01
(PID.TID 0000.0001) %MON ke_max                       =   5.1599243372588E-06
(PID.TID 0000.0001) %MON ke_mean                      =   1.2353156607328E-08
(PID.TID 0000.0001) %MON ke_vol                       =   4.2725489754474E+12
(PID.TID 0000.0001) // =======================================================
(PID.TID 0000.0001) // End MONITOR dynamic field statistics
(PID.TID 0000.0001) // =======================================================
(PID.TID 0000.0001) // =======================================================
(PID.TID 0000.0001) // Begin OBCS MONITOR field statistics
(PID.TID 0000.0001) // =======================================================
(PID.TID 0000.0001) %MON obc_N_vVel_max               =   2.0796704115625E-05
(PID.TID 0000.0001) %MON obc_N_vVel_min               =   2.0796704115624E-05
(PID.TID 0000.0001) %MON obc_N_vVel_mean              =   2.0796704115624E-05
(PID.TID 0000.0001) %MON obc_N_vVel_sd                =  -3.5155176033504E-24
(PID.TID 0000.0001) %MON obc_N_vVel_Int               =   1.3725824716312E+03
(PID.TID 0000.0001) // =======================================================
(PID.TID 0000.0001) // End OBCS MONITOR field statistics
(PID.TID 0000.0001) // =======================================================
 cg2d: Sum(rhs),rhsMax =   4.52058289000574E+00  2.99866464380011E+02
(PID.TID 0000.0001)      cg2d_init_res =   8.67862687669540E-06
(PID.TID 0000.0001)      cg2d_iters(min,last) =      -1      81
(PID.TID 0000.0001)      cg2d_last_res =   8.81000804765721E-12
(PID.TID 0000.0001) // =======================================================
(PID.TID 0000.0001) // Begin MONITOR dynamic field statistics
(PID.TID 0000.0001) // =======================================================
(PID.TID 0000.0001) %MON time_tsnumber                =                   160
(PID.TID 0000.0001) %MON time_secondsf                =   1.6000000000000E+04
(PID.TID 0000.0001) %MON dynstat_eta_max              =   5.7962248882166E+00
(PID.TID 0000.0001) %MON dynstat_eta_min              =  -1.4196954508590E+01
(PID.TID 0000.0001) %MON dynstat_eta_mean             =  -2.5103170521533E+00
(PID.TID 0000.0001) %MON dynstat_eta_sd               =   4.9521761982674E+00
(PID.TID 0000.0001) %MON dynstat_eta_del2             =   2.0714008335288E-01
(PID.TID 0000.0001) %MON dynstat_uvel_max             =   2.5968413202619E-03
(PID.TID 0000.0001) %MON dynstat_uvel_min             =  -2.7212796101210E-03
(PID.TID 0000.0001) %MON dynstat_uvel_mean            =  -1.9525678117758E-07
(PID.TID 0000.0001) %MON dynstat_uvel_sd              =   7.9495855126185E-05
(PID.TID 0000.0001) %MON dynstat_uvel_del2            =   3.9934516351358E-07
(PID.TID 0000.0001) %MON dynstat_vvel_max             =   3.3687862349261E-03
(PID.TID 0000.0001) %MON dynstat_vvel_min             =  -2.7373670225330E-03
(PID.TID 0000.0001) %MON dynstat_vvel_mean            =   2.5390297955733E-05
(PID.TID 0000.0001) %MON dynstat_vvel_sd              =   1.3415037201106E-04
(PID.TID 0000.0001) %MON dynstat_vvel_del2            =   6.2272875899994E-07
(PID.TID 0000.0001) %MON dynstat_wvel_max             =   2.9900472547803E-04
(PID.TID 0000.0001) %MON dynstat_wvel_min             =  -3.1815418474620E-04
(PID.TID 0000.0001) %MON dynstat_wvel_mean            =   3.3886241720247E-08
(PID.TID 0000.0001) %MON dynstat_wvel_sd              =   4.6727278965366E-05
(PID.TID 0000.0001) %MON dynstat_wvel_del2            =   2.4953837000522E-07
(PID.TID 0000.0001) %MON dynstat_theta_max            =   1.2000000000000E+00
(PID.TID 0000.0001) %MON dynstat_theta_min            =  -1.0000000000000E+00
(PID.TID 0000.0001) %MON dynstat_theta_mean           =   5.6911681517224E-01
(PID.TID 0000.0001) %MON dynstat_theta_sd             =   8.6859074566558E-01
(PID.TID 0000.0001) %MON dynstat_theta_del2           =   2.0012780479321E-06
(PID.TID 0000.0001) %MON dynstat_salt_max             =   3.4700000000000E+01
(PID.TID 0000.0001) %MON dynstat_salt_min             =   3.4000000000000E+01
(PID.TID 0000.0001) %MON dynstat_salt_mean            =   3.4499260882229E+01
(PID.TID 0000.0001) %MON dynstat_salt_sd              =   2.7636887337391E-01
(PID.TID 0000.0001) %MON dynstat_salt_del2            =   6.3588063027699E-07
(PID.TID 0000.0001) %MON advcfl_uvel_max              =   2.7212796101210E-04
(PID.TID 0000.0001) %MON advcfl_vvel_max              =   3.3687862349261E-04
(PID.TID 0000.0001) %MON advcfl_wvel_max              =   1.5907709237310E-03
(PID.TID 0000.0001) %MON advcfl_W_hf_max              =   1.5907709237310E-03
(PID.TID 0000.0001) %MON pe_b_mean                    =  -8.3166786079635E-01
(PID.TID 0000.0001) %MON ke_max                       =   5.1863272536748E-06
(PID.TID 0000.0001) %MON ke_mean                      =   1.2414958566956E-08
(PID.TID 0000.0001) %MON ke_vol                       =   4.2725488512161E+12
(PID.TID 0000.0001) // =======================================================
(PID.TID 0000.0001) // End MONITOR dynamic field statistics
(PID.TID 0000.0001) // =======================================================
(PID.TID 0000.0001) // =======================================================
(PID.TID 0000.0001) // Begin OBCS MONITOR field statistics
(PID.TID 0000.0001) // =======================================================
(PID.TID 0000.0001) %MON obc_N_vVel_max               =   2.2353557396739E-05
(PID.TID 0000.0001) %MON obc_N_vVel_min               =   2.2353557396739E-05
(PID.TID 0000.0001) %MON obc_N_vVel_mean              =   2.2353557396739E-05
(PID.TID 0000.0001) %MON obc_N_vVel_sd                =  -3.1639658430153E-23
(PID.TID 0000.0001) %MON obc_N_vVel_Int               =   1.4753347881848E+03
(PID.TID 0000.0001) // =======================================================
(PID.TID 0000.0001) // End OBCS MONITOR field statistics
(PID.TID 0000.0001) // =======================================================
 cg2d: Sum(rhs),rhsMax =   4.52062505492314E+00  2.99866538736914E+02
(PID.TID 0000.0001)      cg2d_init_res =   8.74660184448718E-06
(PID.TID 0000.0001)      cg2d_iters(min,last) =      -1      81
(PID.TID 0000.0001)      cg2d_last_res =   8.81811563865747E-12
(PID.TID 0000.0001) // =======================================================
(PID.TID 0000.0001) // Begin MONITOR dynamic field statistics
(PID.TID 0000.0001) // =======================================================
(PID.TID 0000.0001) %MON time_tsnumber                =                   161
(PID.TID 0000.0001) %MON time_secondsf                =   1.6100000000000E+04
(PID.TID 0000.0001) %MON dynstat_eta_max              =   5.7961828303411E+00
(PID.TID 0000.0001) %MON dynstat_eta_min              =  -1.4196996100290E+01
(PID.TID 0000.0001) %MON dynstat_eta_mean             =  -2.5103410891614E+00
(PID.TID 0000.0001) %MON dynstat_eta_sd               =   4.9521849848013E+00
(PID.TID 0000.0001) %MON dynstat_eta_del2             =   2.0714008517306E-01
(PID.TID 0000.0001) %MON dynstat_uvel_max             =   2.6030982924681E-03
(PID.TID 0000.0001) %MON dynstat_uvel_min             =  -2.7307238953185E-03
(PID.TID 0000.0001) %MON dynstat_uvel_mean            =  -1.7476508623811E-07
(PID.TID 0000.0001) %MON dynstat_uvel_sd              =   7.9665881745324E-05
(PID.TID 0000.0001) %MON dynstat_uvel_del2            =   3.9909061963443E-07
(PID.TID 0000.0001) %MON dynstat_vvel_max             =   3.3859620396015E-03
(PID.TID 0000.0001) %MON dynstat_vvel_min             =  -2.7472237091430E-03
(PID.TID 0000.0001) %MON dynstat_vvel_mean            =   2.6538293363487E-05
(PID.TID 0000.0001) %MON dynstat_vvel_sd              =   1.3423537666941E-04
(PID.TID 0000.0001) %MON dynstat_vvel_del2            =   6.2310716963213E-07
(PID.TID 0000.0001) %MON dynstat_wvel_max             =   3.0267260770435E-04
(PID.TID 0000.0001) %MON dynstat_wvel_min             =  -3.1673366714058E-04
(PID.TID 0000.0001) %MON dynstat_wvel_mean            =   3.2347202876087E-08
(PID.TID 0000.0001) %MON dynstat_wvel_sd              =   4.6725915844457E-05
(PID.TID 0000.0001) %MON dynstat_wvel_del2            =   2.5023757935302E-07
(PID.TID 0000.0001) %MON dynstat_theta_max            =   1.2000000000000E+00
(PID.TID 0000.0001) %MON dynstat_theta_min            =  -1.0000000000000E+00
(PID.TID 0000.0001) %MON dynstat_theta_mean           =   5.6911656298449E-01
(PID.TID 0000.0001) %MON dynstat_theta_sd             =   8.6859060932612E-01
(PID.TID 0000.0001) %MON dynstat_theta_del2           =   1.9905636052942E-06
(PID.TID 0000.0001) %MON dynstat_salt_max             =   3.4700000000000E+01
(PID.TID 0000.0001) %MON dynstat_salt_min             =   3.4000000000000E+01
(PID.TID 0000.0001) %MON dynstat_salt_mean            =   3.4499260780915E+01
(PID.TID 0000.0001) %MON dynstat_salt_sd              =   2.7636882433186E-01
(PID.TID 0000.0001) %MON dynstat_salt_del2            =   6.3252925708794E-07
(PID.TID 0000.0001) %MON advcfl_uvel_max              =   2.7307238953185E-04
(PID.TID 0000.0001) %MON advcfl_vvel_max              =   3.3859620396015E-04
(PID.TID 0000.0001) %MON advcfl_wvel_max              =   1.5836683357029E-03
(PID.TID 0000.0001) %MON advcfl_W_hf_max              =   1.5836683357029E-03
(PID.TID 0000.0001) %MON pe_b_mean                    =  -8.3167491492955E-01
(PID.TID 0000.0001) %MON ke_max                       =   5.2119837904841E-06
(PID.TID 0000.0001) %MON ke_mean                      =   1.2469205402049E-08
(PID.TID 0000.0001) %MON ke_vol                       =   4.2725487167102E+12
(PID.TID 0000.0001) // =======================================================
(PID.TID 0000.0001) // End MONITOR dynamic field statistics
(PID.TID 0000.0001) // =======================================================
(PID.TID 0000.0001) // =======================================================
(PID.TID 0000.0001) // Begin OBCS MONITOR field statistics
(PID.TID 0000.0001) // =======================================================
(PID.TID 0000.0001) %MON obc_N_vVel_max               =   2.3607296284210E-05
(PID.TID 0000.0001) %MON obc_N_vVel_min               =   2.3607296284209E-05
(PID.TID 0000.0001) %MON obc_N_vVel_mean              =   2.3607296284210E-05
(PID.TID 0000.0001) %MON obc_N_vVel_sd                =  -2.4505225646883E-23
(PID.TID 0000.0001) %MON obc_N_vVel_Int               =   1.5580815547578E+03
(PID.TID 0000.0001) // =======================================================
(PID.TID 0000.0001) // End OBCS MONITOR field statistics
(PID.TID 0000.0001) // =======================================================
 cg2d: Sum(rhs),rhsMax =   4.52066908555825E+00  2.99866613717616E+02
(PID.TID 0000.0001)      cg2d_init_res =   8.81586898847838E-06
(PID.TID 0000.0001)      cg2d_iters(min,last) =      -1      80
(PID.TID 0000.0001)      cg2d_last_res =   9.68131246880299E-12
(PID.TID 0000.0001) // =======================================================
(PID.TID 0000.0001) // Begin MONITOR dynamic field statistics
(PID.TID 0000.0001) // =======================================================
(PID.TID 0000.0001) %MON time_tsnumber                =                   162
(PID.TID 0000.0001) %MON time_secondsf                =   1.6200000000000E+04
(PID.TID 0000.0001) %MON dynstat_eta_max              =   5.7961396783776E+00
(PID.TID 0000.0001) %MON dynstat_eta_min              =  -1.4197038804450E+01
(PID.TID 0000.0001) %MON dynstat_eta_mean             =  -2.5103661674523E+00
(PID.TID 0000.0001) %MON dynstat_eta_sd               =   4.9521938184280E+00
(PID.TID 0000.0001) %MON dynstat_eta_del2             =   2.0714008701574E-01
(PID.TID 0000.0001) %MON dynstat_uvel_max             =   2.6091554711840E-03
(PID.TID 0000.0001) %MON dynstat_uvel_min             =  -2.7400073110755E-03
(PID.TID 0000.0001) %MON dynstat_uvel_mean            =  -1.5396371901339E-07
(PID.TID 0000.0001) %MON dynstat_uvel_sd              =   7.9836268890303E-05
(PID.TID 0000.0001) %MON dynstat_uvel_del2            =   3.9881669185797E-07
(PID.TID 0000.0001) %MON dynstat_vvel_max             =   3.4024860286230E-03
(PID.TID 0000.0001) %MON dynstat_vvel_min             =  -2.7574155078485E-03
(PID.TID 0000.0001) %MON dynstat_vvel_mean            =   2.7305203320594E-05
(PID.TID 0000.0001) %MON dynstat_vvel_sd              =   1.3431006825885E-04
(PID.TID 0000.0001) %MON dynstat_vvel_del2            =   6.2325944742998E-07
(PID.TID 0000.0001) %MON dynstat_wvel_max             =   3.0920249953890E-04
(PID.TID 0000.0001) %MON dynstat_wvel_min             =  -3.0863723409091E-04
(PID.TID 0000.0001) %MON dynstat_wvel_mean            =   3.0226561144445E-08
(PID.TID 0000.0001) %MON dynstat_wvel_sd              =   4.6712296991622E-05
(PID.TID 0000.0001) %MON dynstat_wvel_del2            =   2.5070874370349E-07
(PID.TID 0000.0001) %MON dynstat_theta_max            =   1.2000000000000E+00
(PID.TID 0000.0001) %MON dynstat_theta_min            =  -1.0000000000000E+00
(PID.TID 0000.0001) %MON dynstat_theta_mean           =   5.6911631114072E-01
(PID.TID 0000.0001) %MON dynstat_theta_sd             =   8.6859047271918E-01
(PID.TID 0000.0001) %MON dynstat_theta_del2           =   1.9801049871457E-06
(PID.TID 0000.0001) %MON dynstat_salt_max             =   3.4700000000000E+01
(PID.TID 0000.0001) %MON dynstat_salt_min             =   3.4000000000000E+01
(PID.TID 0000.0001) %MON dynstat_salt_mean            =   3.4499260679709E+01
(PID.TID 0000.0001) %MON dynstat_salt_sd              =   2.7636877520388E-01
(PID.TID 0000.0001) %MON dynstat_salt_del2            =   6.2926000037512E-07
(PID.TID 0000.0001) %MON advcfl_uvel_max              =   2.7400073110755E-04
(PID.TID 0000.0001) %MON advcfl_vvel_max              =   3.4024860286230E-04
(PID.TID 0000.0001) %MON advcfl_wvel_max              =   1.5460124976945E-03
(PID.TID 0000.0001) %MON advcfl_W_hf_max              =   1.5460124976945E-03
(PID.TID 0000.0001) %MON pe_b_mean                    =  -8.3168214078109E-01
(PID.TID 0000.0001) %MON ke_max                       =   5.2368932210885E-06
(PID.TID 0000.0001) %MON ke_mean                      =   1.2513020010421E-08
(PID.TID 0000.0001) %MON ke_vol                       =   4.2725485739304E+12
(PID.TID 0000.0001) // =======================================================
(PID.TID 0000.0001) // End MONITOR dynamic field statistics
(PID.TID 0000.0001) // =======================================================
(PID.TID 0000.0001) // =======================================================
(PID.TID 0000.0001) // Begin OBCS MONITOR field statistics
(PID.TID 0000.0001) // =======================================================
(PID.TID 0000.0001) %MON obc_N_vVel_max               =   2.4544553048306E-05
(PID.TID 0000.0001) %MON obc_N_vVel_min               =   2.4544553048306E-05
(PID.TID 0000.0001) %MON obc_N_vVel_mean              =   2.4544553048306E-05
(PID.TID 0000.0001) %MON obc_N_vVel_sd                =   6.7755829267077E-12
(PID.TID 0000.0001) %MON obc_N_vVel_Int               =   1.6199405011882E+03
(PID.TID 0000.0001) // =======================================================
(PID.TID 0000.0001) // End OBCS MONITOR field statistics
(PID.TID 0000.0001) // =======================================================
 cg2d: Sum(rhs),rhsMax =   4.52071433847622E+00  2.99866689452910E+02
(PID.TID 0000.0001)      cg2d_init_res =   8.88046641762097E-06
(PID.TID 0000.0001)      cg2d_iters(min,last) =      -1      80
(PID.TID 0000.0001)      cg2d_last_res =   8.73818239034324E-12
(PID.TID 0000.0001) // =======================================================
(PID.TID 0000.0001) // Begin MONITOR dynamic field statistics
(PID.TID 0000.0001) // =======================================================
(PID.TID 0000.0001) %MON time_tsnumber                =                   163
(PID.TID 0000.0001) %MON time_secondsf                =   1.6300000000000E+04
(PID.TID 0000.0001) %MON dynstat_eta_max              =   5.7960959668618E+00
(PID.TID 0000.0001) %MON dynstat_eta_min              =  -1.4197082297871E+01
(PID.TID 0000.0001) %MON dynstat_eta_mean             =  -2.5103919308170E+00
(PID.TID 0000.0001) %MON dynstat_eta_sd               =   4.9522025852637E+00
(PID.TID 0000.0001) %MON dynstat_eta_del2             =   2.0714008888182E-01
(PID.TID 0000.0001) %MON dynstat_uvel_max             =   2.6150129401863E-03
(PID.TID 0000.0001) %MON dynstat_uvel_min             =  -2.7491315921147E-03
(PID.TID 0000.0001) %MON dynstat_uvel_mean            =  -1.3346297243512E-07
(PID.TID 0000.0001) %MON dynstat_uvel_sd              =   8.0006886014194E-05
(PID.TID 0000.0001) %MON dynstat_uvel_del2            =   3.9852398285033E-07
(PID.TID 0000.0001) %MON dynstat_vvel_max             =   3.4183719300138E-03
(PID.TID 0000.0001) %MON dynstat_vvel_min             =  -2.7679295501679E-03
(PID.TID 0000.0001) %MON dynstat_vvel_mean            =   2.7695662259935E-05
(PID.TID 0000.0001) %MON dynstat_vvel_sd              =   1.3436549956390E-04
(PID.TID 0000.0001) %MON dynstat_vvel_del2            =   6.2304941073607E-07
(PID.TID 0000.0001) %MON dynstat_wvel_max             =   3.1049596920577E-04
(PID.TID 0000.0001) %MON dynstat_wvel_min             =  -2.9408474906486E-04
(PID.TID 0000.0001) %MON dynstat_wvel_mean            =   2.7618532560588E-08
(PID.TID 0000.0001) %MON dynstat_wvel_sd              =   4.6674983300986E-05
(PID.TID 0000.0001) %MON dynstat_wvel_del2            =   2.5080872381478E-07
(PID.TID 0000.0001) %MON dynstat_theta_max            =   1.2000000000000E+00
(PID.TID 0000.0001) %MON dynstat_theta_min            =  -1.0000000000000E+00
(PID.TID 0000.0001) %MON dynstat_theta_mean           =   5.6911605949588E-01
(PID.TID 0000.0001) %MON dynstat_theta_sd             =   8.6859033594160E-01
(PID.TID 0000.0001) %MON dynstat_theta_del2           =   1.9700089040127E-06
(PID.TID 0000.0001) %MON dynstat_salt_max             =   3.4700000000000E+01
(PID.TID 0000.0001) %MON dynstat_salt_min             =   3.4000000000000E+01
(PID.TID 0000.0001) %MON dynstat_salt_mean            =   3.4499260578566E+01
(PID.TID 0000.0001) %MON dynstat_salt_sd              =   2.7636872602081E-01
(PID.TID 0000.0001) %MON dynstat_salt_del2            =   6.2610665441471E-07
(PID.TID 0000.0001) %MON advcfl_uvel_max              =   2.7491315921147E-04
(PID.TID 0000.0001) %MON advcfl_vvel_max              =   3.4183719300138E-04
(PID.TID 0000.0001) %MON advcfl_wvel_max              =   1.5524798460288E-03
(PID.TID 0000.0001) %MON advcfl_W_hf_max              =   1.5524798460288E-03
(PID.TID 0000.0001) %MON pe_b_mean                    =  -8.3168944429979E-01
(PID.TID 0000.0001) %MON ke_max                       =   5.2656984629107E-06
(PID.TID 0000.0001) %MON ke_mean                      =   1.2544447297598E-08
(PID.TID 0000.0001) %MON ke_vol                       =   4.2725484249653E+12
(PID.TID 0000.0001) // =======================================================
(PID.TID 0000.0001) // End MONITOR dynamic field statistics
(PID.TID 0000.0001) // =======================================================
(PID.TID 0000.0001) // =======================================================
(PID.TID 0000.0001) // Begin OBCS MONITOR field statistics
(PID.TID 0000.0001) // =======================================================
(PID.TID 0000.0001) %MON obc_N_vVel_max               =   2.5161217558811E-05
(PID.TID 0000.0001) %MON obc_N_vVel_min               =   2.5161217558811E-05
(PID.TID 0000.0001) %MON obc_N_vVel_mean              =   2.5161217558811E-05
(PID.TID 0000.0001) %MON obc_N_vVel_sd                =   4.9293438197944E-12
(PID.TID 0000.0001) %MON obc_N_vVel_Int               =   1.6606403588815E+03
(PID.TID 0000.0001) // =======================================================
(PID.TID 0000.0001) // End OBCS MONITOR field statistics
(PID.TID 0000.0001) // =======================================================
 cg2d: Sum(rhs),rhsMax =   4.52076017993454E+00  2.99866766046377E+02
(PID.TID 0000.0001)      cg2d_init_res =   8.93510926084659E-06
(PID.TID 0000.0001)      cg2d_iters(min,last) =      -1      78
(PID.TID 0000.0001)      cg2d_last_res =   8.95691208917509E-12
(PID.TID 0000.0001) // =======================================================
(PID.TID 0000.0001) // Begin MONITOR dynamic field statistics
(PID.TID 0000.0001) // =======================================================
(PID.TID 0000.0001) %MON time_tsnumber                =                   164
(PID.TID 0000.0001) %MON time_secondsf                =   1.6400000000000E+04
(PID.TID 0000.0001) %MON dynstat_eta_max              =   5.7960522092791E+00
(PID.TID 0000.0001) %MON dynstat_eta_min              =  -1.4197126257613E+01
(PID.TID 0000.0001) %MON dynstat_eta_mean             =  -2.5104180282004E+00
(PID.TID 0000.0001) %MON dynstat_eta_sd               =   4.9522111806222E+00
(PID.TID 0000.0001) %MON dynstat_eta_del2             =   2.0714009077118E-01
(PID.TID 0000.0001) %MON dynstat_uvel_max             =   2.6206709216154E-03
(PID.TID 0000.0001) %MON dynstat_uvel_min             =  -2.7580983631204E-03
(PID.TID 0000.0001) %MON dynstat_uvel_mean            =  -1.1382218582353E-07
(PID.TID 0000.0001) %MON dynstat_uvel_sd              =   8.0177603570002E-05
(PID.TID 0000.0001) %MON dynstat_uvel_del2            =   3.9821309980813E-07
(PID.TID 0000.0001) %MON dynstat_vvel_max             =   3.4336453238080E-03
(PID.TID 0000.0001) %MON dynstat_vvel_min             =  -2.7787412472007E-03
(PID.TID 0000.0001) %MON dynstat_vvel_mean            =   2.7723971342434E-05
(PID.TID 0000.0001) %MON dynstat_vvel_sd              =   1.3439547363813E-04
(PID.TID 0000.0001) %MON dynstat_vvel_del2            =   6.2239285485505E-07
(PID.TID 0000.0001) %MON dynstat_wvel_max             =   3.0647749337443E-04
(PID.TID 0000.0001) %MON dynstat_wvel_min             =  -2.7343925228862E-04
(PID.TID 0000.0001) %MON dynstat_wvel_mean            =   2.4624188888587E-08
(PID.TID 0000.0001) %MON dynstat_wvel_sd              =   4.6606068991732E-05
(PID.TID 0000.0001) %MON dynstat_wvel_del2            =   2.5044812119760E-07
(PID.TID 0000.0001) %MON dynstat_theta_max            =   1.2000000000000E+00
(PID.TID 0000.0001) %MON dynstat_theta_min            =  -1.0000000000000E+00
(PID.TID 0000.0001) %MON dynstat_theta_mean           =   5.6911580790847E-01
(PID.TID 0000.0001) %MON dynstat_theta_sd             =   8.6859019910158E-01
(PID.TID 0000.0001) %MON dynstat_theta_del2           =   1.9603366920835E-06
(PID.TID 0000.0001) %MON dynstat_salt_max             =   3.4700000000000E+01
(PID.TID 0000.0001) %MON dynstat_salt_min             =   3.4000000000000E+01
(PID.TID 0000.0001) %MON dynstat_salt_mean            =   3.4499260477439E+01
(PID.TID 0000.0001) %MON dynstat_salt_sd              =   2.7636867681721E-01
(PID.TID 0000.0001) %MON dynstat_salt_del2            =   6.2308882095195E-07
(PID.TID 0000.0001) %MON advcfl_uvel_max              =   2.7580983631204E-04
(PID.TID 0000.0001) %MON advcfl_vvel_max              =   3.4336453238080E-04
(PID.TID 0000.0001) %MON advcfl_wvel_max              =   1.5323874668722E-03
(PID.TID 0000.0001) %MON advcfl_W_hf_max              =   1.5323874668722E-03
(PID.TID 0000.0001) %MON pe_b_mean                    =  -8.3169673553211E-01
(PID.TID 0000.0001) %MON ke_max                       =   5.2982789986796E-06
(PID.TID 0000.0001) %MON ke_mean                      =   1.2562600340691E-08
(PID.TID 0000.0001) %MON ke_vol                       =   4.2725482719309E+12
(PID.TID 0000.0001) // =======================================================
(PID.TID 0000.0001) // End MONITOR dynamic field statistics
(PID.TID 0000.0001) // =======================================================
(PID.TID 0000.0001) // =======================================================
(PID.TID 0000.0001) // Begin OBCS MONITOR field statistics
(PID.TID 0000.0001) // =======================================================
(PID.TID 0000.0001) %MON obc_N_vVel_max               =   2.5461931741012E-05
(PID.TID 0000.0001) %MON obc_N_vVel_min               =   2.5461931741012E-05
(PID.TID 0000.0001) %MON obc_N_vVel_mean              =   2.5461931741012E-05
(PID.TID 0000.0001) %MON obc_N_vVel_sd                =   7.0228657984810E-12
(PID.TID 0000.0001) %MON obc_N_vVel_Int               =   1.6804874949068E+03
(PID.TID 0000.0001) // =======================================================
(PID.TID 0000.0001) // End OBCS MONITOR field statistics
(PID.TID 0000.0001) // =======================================================
 cg2d: Sum(rhs),rhsMax =   4.52080600201900E+00  2.99866843574965E+02
(PID.TID 0000.0001)      cg2d_init_res =   8.97667154838954E-06
(PID.TID 0000.0001)      cg2d_iters(min,last) =      -1      77
(PID.TID 0000.0001)      cg2d_last_res =   8.44892628968787E-12
(PID.TID 0000.0001) // =======================================================
(PID.TID 0000.0001) // Begin MONITOR dynamic field statistics
(PID.TID 0000.0001) // =======================================================
(PID.TID 0000.0001) %MON time_tsnumber                =                   165
(PID.TID 0000.0001) %MON time_secondsf                =   1.6500000000000E+04
(PID.TID 0000.0001) %MON dynstat_eta_max              =   5.7960088915108E+00
(PID.TID 0000.0001) %MON dynstat_eta_min              =  -1.4197170370062E+01
(PID.TID 0000.0001) %MON dynstat_eta_mean             =  -2.5104441226670E+00
(PID.TID 0000.0001) %MON dynstat_eta_sd               =   4.9522195111851E+00
(PID.TID 0000.0001) %MON dynstat_eta_del2             =   2.0714009268181E-01
(PID.TID 0000.0001) %MON dynstat_uvel_max             =   2.6261298274228E-03
(PID.TID 0000.0001) %MON dynstat_uvel_min             =  -2.7669091370228E-03
(PID.TID 0000.0001) %MON dynstat_uvel_mean            =  -9.5538423486741E-08
(PID.TID 0000.0001) %MON dynstat_uvel_sd              =   8.0348296588251E-05
(PID.TID 0000.0001) %MON dynstat_uvel_del2            =   3.9788464814271E-07
(PID.TID 0000.0001) %MON dynstat_vvel_max             =   3.4483421360889E-03
(PID.TID 0000.0001) %MON dynstat_vvel_min             =  -2.7898157278257E-03
(PID.TID 0000.0001) %MON dynstat_vvel_mean            =   2.7413084272206E-05
(PID.TID 0000.0001) %MON dynstat_vvel_sd              =   1.3439721380377E-04
(PID.TID 0000.0001) %MON dynstat_vvel_del2            =   6.2126576762511E-07
(PID.TID 0000.0001) %MON dynstat_wvel_max             =   2.9716830227079E-04
(PID.TID 0000.0001) %MON dynstat_wvel_min             =  -2.4719914681424E-04
(PID.TID 0000.0001) %MON dynstat_wvel_mean            =   2.1348115317527E-08
(PID.TID 0000.0001) %MON dynstat_wvel_sd              =   4.6502029157580E-05
(PID.TID 0000.0001) %MON dynstat_wvel_del2            =   2.4959929707943E-07
(PID.TID 0000.0001) %MON dynstat_theta_max            =   1.2000000000000E+00
(PID.TID 0000.0001) %MON dynstat_theta_min            =  -1.0000000000000E+00
(PID.TID 0000.0001) %MON dynstat_theta_mean           =   5.6911555624391E-01
(PID.TID 0000.0001) %MON dynstat_theta_sd             =   8.6859006220330E-01
(PID.TID 0000.0001) %MON dynstat_theta_del2           =   1.9511001613025E-06
(PID.TID 0000.0001) %MON dynstat_salt_max             =   3.4700000000000E+01
(PID.TID 0000.0001) %MON dynstat_salt_min             =   3.4000000000000E+01
(PID.TID 0000.0001) %MON dynstat_salt_mean            =   3.4499260376288E+01
(PID.TID 0000.0001) %MON dynstat_salt_sd              =   2.7636862759416E-01
(PID.TID 0000.0001) %MON dynstat_salt_del2            =   6.2021024863545E-07
(PID.TID 0000.0001) %MON advcfl_uvel_max              =   2.7669091370228E-04
(PID.TID 0000.0001) %MON advcfl_vvel_max              =   3.4483421360889E-04
(PID.TID 0000.0001) %MON advcfl_wvel_max              =   1.4858415113539E-03
(PID.TID 0000.0001) %MON advcfl_W_hf_max              =   1.4858415113539E-03
(PID.TID 0000.0001) %MON pe_b_mean                    =  -8.3170393073462E-01
(PID.TID 0000.0001) %MON ke_max                       =   5.3299079282104E-06
(PID.TID 0000.0001) %MON ke_mean                      =   1.2567691768114E-08
(PID.TID 0000.0001) %MON ke_vol                       =   4.2725481169125E+12
(PID.TID 0000.0001) // =======================================================
(PID.TID 0000.0001) // End MONITOR dynamic field statistics
(PID.TID 0000.0001) // =======================================================
(PID.TID 0000.0001) // =======================================================
(PID.TID 0000.0001) // Begin OBCS MONITOR field statistics
(PID.TID 0000.0001) // =======================================================
(PID.TID 0000.0001) %MON obc_N_vVel_max               =   2.5459406386968E-05
(PID.TID 0000.0001) %MON obc_N_vVel_min               =   2.5459406386967E-05
(PID.TID 0000.0001) %MON obc_N_vVel_mean              =   2.5459406386967E-05
(PID.TID 0000.0001) %MON obc_N_vVel_sd                =   3.0505379675102E-12
(PID.TID 0000.0001) %MON obc_N_vVel_Int               =   1.6803208215398E+03
(PID.TID 0000.0001) // =======================================================
(PID.TID 0000.0001) // End OBCS MONITOR field statistics
(PID.TID 0000.0001) // =======================================================
 cg2d: Sum(rhs),rhsMax =   4.52085123704094E+00  2.99866922089165E+02
(PID.TID 0000.0001)      cg2d_init_res =   9.00364646548162E-06
(PID.TID 0000.0001)      cg2d_iters(min,last) =      -1      74
(PID.TID 0000.0001)      cg2d_last_res =   9.89950496828291E-12
(PID.TID 0000.0001) // =======================================================
(PID.TID 0000.0001) // Begin MONITOR dynamic field statistics
(PID.TID 0000.0001) // =======================================================
(PID.TID 0000.0001) %MON time_tsnumber                =                   166
(PID.TID 0000.0001) %MON time_secondsf                =   1.6600000000000E+04
(PID.TID 0000.0001) %MON dynstat_eta_max              =   5.7959664499451E+00
(PID.TID 0000.0001) %MON dynstat_eta_min              =  -1.4197214336631E+01
(PID.TID 0000.0001) %MON dynstat_eta_mean             =  -2.5104698993972E+00
(PID.TID 0000.0001) %MON dynstat_eta_sd               =   4.9522274967631E+00
(PID.TID 0000.0001) %MON dynstat_eta_del2             =   2.0714009461289E-01
(PID.TID 0000.0001) %MON dynstat_uvel_max             =   2.6313902209694E-03
(PID.TID 0000.0001) %MON dynstat_uvel_min             =  -2.7755652758046E-03
(PID.TID 0000.0001) %MON dynstat_uvel_mean            =  -7.9030349382906E-08
(PID.TID 0000.0001) %MON dynstat_uvel_sd              =   8.0518848571477E-05
(PID.TID 0000.0001) %MON dynstat_uvel_del2            =   3.9753922800453E-07
(PID.TID 0000.0001) %MON dynstat_vvel_max             =   3.4625072761028E-03
(PID.TID 0000.0001) %MON dynstat_vvel_min             =  -2.8011093777716E-03
(PID.TID 0000.0001) %MON dynstat_vvel_mean            =   2.6793430464104E-05
(PID.TID 0000.0001) %MON dynstat_vvel_sd              =   1.3437158776717E-04
(PID.TID 0000.0001) %MON dynstat_vvel_del2            =   6.1970489544760E-07
(PID.TID 0000.0001) %MON dynstat_wvel_max             =   2.8268821966091E-04
(PID.TID 0000.0001) %MON dynstat_wvel_min             =  -2.2358043766095E-04
(PID.TID 0000.0001) %MON dynstat_wvel_mean            =   1.7895522313648E-08
(PID.TID 0000.0001) %MON dynstat_wvel_sd              =   4.6363999991314E-05
(PID.TID 0000.0001) %MON dynstat_wvel_del2            =   2.4829716255915E-07
(PID.TID 0000.0001) %MON dynstat_theta_max            =   1.2000000000000E+00
(PID.TID 0000.0001) %MON dynstat_theta_min            =  -1.0000000000000E+00
(PID.TID 0000.0001) %MON dynstat_theta_mean           =   5.6911530437882E-01
(PID.TID 0000.0001) %MON dynstat_theta_sd             =   8.6858992536620E-01
(PID.TID 0000.0001) %MON dynstat_theta_del2           =   1.9422565105692E-06
(PID.TID 0000.0001) %MON dynstat_salt_max             =   3.4700000000000E+01
(PID.TID 0000.0001) %MON dynstat_salt_min             =   3.4000000000000E+01
(PID.TID 0000.0001) %MON dynstat_salt_mean            =   3.4499260275071E+01
(PID.TID 0000.0001) %MON dynstat_salt_sd              =   2.7636857838948E-01
(PID.TID 0000.0001) %MON dynstat_salt_del2            =   6.1745727875062E-07
(PID.TID 0000.0001) %MON advcfl_uvel_max              =   2.7755652758046E-04
(PID.TID 0000.0001) %MON advcfl_vvel_max              =   3.4625072761028E-04
(PID.TID 0000.0001) %MON advcfl_wvel_max              =   1.4134410983045E-03
(PID.TID 0000.0001) %MON advcfl_W_hf_max              =   1.4134410983045E-03
(PID.TID 0000.0001) %MON pe_b_mean                    =  -8.3171095418625E-01
(PID.TID 0000.0001) %MON ke_max                       =   5.3606202077502E-06
(PID.TID 0000.0001) %MON ke_mean                      =   1.2560955984968E-08
(PID.TID 0000.0001) %MON ke_vol                       =   4.2725479619114E+12
(PID.TID 0000.0001) // =======================================================
(PID.TID 0000.0001) // End MONITOR dynamic field statistics
(PID.TID 0000.0001) // =======================================================
(PID.TID 0000.0001) // =======================================================
(PID.TID 0000.0001) // Begin OBCS MONITOR field statistics
(PID.TID 0000.0001) // =======================================================
(PID.TID 0000.0001) %MON obc_N_vVel_max               =   2.5173540280482E-05
(PID.TID 0000.0001) %MON obc_N_vVel_min               =   2.5173540280481E-05
(PID.TID 0000.0001) %MON obc_N_vVel_mean              =   2.5173540280481E-05
(PID.TID 0000.0001) %MON obc_N_vVel_sd                =   3.6803644562130E-12
(PID.TID 0000.0001) %MON obc_N_vVel_Int               =   1.6614536585118E+03
(PID.TID 0000.0001) // =======================================================
(PID.TID 0000.0001) // End OBCS MONITOR field statistics
(PID.TID 0000.0001) // =======================================================
 cg2d: Sum(rhs),rhsMax =   4.52089537005137E+00  2.99867001603886E+02
(PID.TID 0000.0001)      cg2d_init_res =   9.01565185263592E-06
(PID.TID 0000.0001)      cg2d_iters(min,last) =      -1      74
(PID.TID 0000.0001)      cg2d_last_res =   9.03295538563293E-12
(PID.TID 0000.0001) // =======================================================
(PID.TID 0000.0001) // Begin MONITOR dynamic field statistics
(PID.TID 0000.0001) // =======================================================
(PID.TID 0000.0001) %MON time_tsnumber                =                   167
(PID.TID 0000.0001) %MON time_secondsf                =   1.6700000000000E+04
(PID.TID 0000.0001) %MON dynstat_eta_max              =   5.7959252729310E+00
(PID.TID 0000.0001) %MON dynstat_eta_min              =  -1.4197257883406E+01
(PID.TID 0000.0001) %MON dynstat_eta_mean             =  -2.5104950725596E+00
(PID.TID 0000.0001) %MON dynstat_eta_sd               =   4.9522350715153E+00
(PID.TID 0000.0001) %MON dynstat_eta_del2             =   2.0714009656209E-01
(PID.TID 0000.0001) %MON dynstat_uvel_max             =   2.6364528782139E-03
(PID.TID 0000.0001) %MON dynstat_uvel_min             =  -2.7840679900244E-03
(PID.TID 0000.0001) %MON dynstat_uvel_mean            =  -6.4633444486040E-08
(PID.TID 0000.0001) %MON dynstat_uvel_sd              =   8.0689154078542E-05
(PID.TID 0000.0001) %MON dynstat_uvel_del2            =   3.9717743635907E-07
(PID.TID 0000.0001) %MON dynstat_vvel_max             =   3.4761924450173E-03
(PID.TID 0000.0001) %MON dynstat_vvel_min             =  -2.8125716760332E-03
(PID.TID 0000.0001) %MON dynstat_vvel_mean            =   2.5901613077650E-05
(PID.TID 0000.0001) %MON dynstat_vvel_sd              =   1.3432286749266E-04
(PID.TID 0000.0001) %MON dynstat_vvel_del2            =   6.1780086548034E-07
(PID.TID 0000.0001) %MON dynstat_wvel_max             =   2.6959294107940E-04
(PID.TID 0000.0001) %MON dynstat_wvel_min             =  -2.3387174781794E-04
(PID.TID 0000.0001) %MON dynstat_wvel_mean            =   1.4369400737636E-08
(PID.TID 0000.0001) %MON dynstat_wvel_sd              =   4.6197476297502E-05
(PID.TID 0000.0001) %MON dynstat_wvel_del2            =   2.4663305714405E-07
(PID.TID 0000.0001) %MON dynstat_theta_max            =   1.2000000000000E+00
(PID.TID 0000.0001) %MON dynstat_theta_min            =  -1.0000000000000E+00
(PID.TID 0000.0001) %MON dynstat_theta_mean           =   5.6911505220266E-01
(PID.TID 0000.0001) %MON dynstat_theta_sd             =   8.6858978871051E-01
(PID.TID 0000.0001) %MON dynstat_theta_del2           =   1.9337205963802E-06
(PID.TID 0000.0001) %MON dynstat_salt_max             =   3.4700000000000E+01
(PID.TID 0000.0001) %MON dynstat_salt_min             =   3.4000000000000E+01
(PID.TID 0000.0001) %MON dynstat_salt_mean            =   3.4499260173755E+01
(PID.TID 0000.0001) %MON dynstat_salt_sd              =   2.7636852924178E-01
(PID.TID 0000.0001) %MON dynstat_salt_del2            =   6.1480289538373E-07
(PID.TID 0000.0001) %MON advcfl_uvel_max              =   2.7840679900244E-04
(PID.TID 0000.0001) %MON advcfl_vvel_max              =   3.4761924450173E-04
(PID.TID 0000.0001) %MON advcfl_wvel_max              =   1.3479647053970E-03
(PID.TID 0000.0001) %MON advcfl_W_hf_max              =   1.3479647053970E-03
(PID.TID 0000.0001) %MON pe_b_mean                    =  -8.3171773966338E-01
(PID.TID 0000.0001) %MON ke_max                       =   5.3904600488782E-06
(PID.TID 0000.0001) %MON ke_mean                      =   1.2544474808318E-08
(PID.TID 0000.0001) %MON ke_vol                       =   4.2725478087976E+12
(PID.TID 0000.0001) // =======================================================
(PID.TID 0000.0001) // End MONITOR dynamic field statistics
(PID.TID 0000.0001) // =======================================================
(PID.TID 0000.0001) // =======================================================
(PID.TID 0000.0001) // Begin OBCS MONITOR field statistics
(PID.TID 0000.0001) // =======================================================
(PID.TID 0000.0001) %MON obc_N_vVel_max               =   2.4630424811925E-05
(PID.TID 0000.0001) %MON obc_N_vVel_min               =   2.4630424811925E-05
(PID.TID 0000.0001) %MON obc_N_vVel_mean              =   2.4630424811925E-05
(PID.TID 0000.0001) %MON obc_N_vVel_sd                =  -2.6676574754835E-23
(PID.TID 0000.0001) %MON obc_N_vVel_Int               =   1.6256080375871E+03
(PID.TID 0000.0001) // =======================================================
(PID.TID 0000.0001) // End OBCS MONITOR field statistics
(PID.TID 0000.0001) // =======================================================
 cg2d: Sum(rhs),rhsMax =   4.52093794889937E+00  2.99867082107645E+02
(PID.TID 0000.0001)      cg2d_init_res =   9.01407152823508E-06
(PID.TID 0000.0001)      cg2d_iters(min,last) =      -1      74
(PID.TID 0000.0001)      cg2d_last_res =   8.49994474498352E-12
(PID.TID 0000.0001) // =======================================================
(PID.TID 0000.0001) // Begin MONITOR dynamic field statistics
(PID.TID 0000.0001) // =======================================================
(PID.TID 0000.0001) %MON time_tsnumber                =                   168
(PID.TID 0000.0001) %MON time_secondsf                =   1.6800000000000E+04
(PID.TID 0000.0001) %MON dynstat_eta_max              =   5.7958856890674E+00
(PID.TID 0000.0001) %MON dynstat_eta_min              =  -1.4197300764517E+01
(PID.TID 0000.0001) %MON dynstat_eta_mean             =  -2.5105193909744E+00
(PID.TID 0000.0001) %MON dynstat_eta_sd               =   4.9522421847717E+00
(PID.TID 0000.0001) %MON dynstat_eta_del2             =   2.0714009852672E-01
(PID.TID 0000.0001) %MON dynstat_uvel_max             =   2.6413187525023E-03
(PID.TID 0000.0001) %MON dynstat_uvel_min             =  -2.7924183425760E-03
(PID.TID 0000.0001) %MON dynstat_uvel_mean            =  -5.2592830704609E-08
(PID.TID 0000.0001) %MON dynstat_uvel_sd              =   8.0859121290967E-05
(PID.TID 0000.0001) %MON dynstat_uvel_del2            =   3.9679985998378E-07
(PID.TID 0000.0001) %MON dynstat_vvel_max             =   3.4894547197215E-03
(PID.TID 0000.0001) %MON dynstat_vvel_min             =  -2.8241469632162E-03
(PID.TID 0000.0001) %MON dynstat_vvel_mean            =   2.4779034659021E-05
(PID.TID 0000.0001) %MON dynstat_vvel_sd              =   1.3425805907459E-04
(PID.TID 0000.0001) %MON dynstat_vvel_del2            =   6.1568482703251E-07
(PID.TID 0000.0001) %MON dynstat_wvel_max             =   2.6781542529509E-04
(PID.TID 0000.0001) %MON dynstat_wvel_min             =  -2.5462886494483E-04
(PID.TID 0000.0001) %MON dynstat_wvel_mean            =   1.0867930286028E-08
(PID.TID 0000.0001) %MON dynstat_wvel_sd              =   4.6011471676806E-05
(PID.TID 0000.0001) %MON dynstat_wvel_del2            =   2.4474234191338E-07
(PID.TID 0000.0001) %MON dynstat_theta_max            =   1.2000000000000E+00
(PID.TID 0000.0001) %MON dynstat_theta_min            =  -1.0000000000000E+00
(PID.TID 0000.0001) %MON dynstat_theta_mean           =   5.6911479962005E-01
(PID.TID 0000.0001) %MON dynstat_theta_sd             =   8.6858965236635E-01
(PID.TID 0000.0001) %MON dynstat_theta_del2           =   1.9253766163844E-06
(PID.TID 0000.0001) %MON dynstat_salt_max             =   3.4700000000000E+01
(PID.TID 0000.0001) %MON dynstat_salt_min             =   3.4000000000000E+01
(PID.TID 0000.0001) %MON dynstat_salt_mean            =   3.4499260072308E+01
(PID.TID 0000.0001) %MON dynstat_salt_sd              =   2.7636848019231E-01
(PID.TID 0000.0001) %MON dynstat_salt_del2            =   6.1221014627160E-07
(PID.TID 0000.0001) %MON advcfl_uvel_max              =   2.7924183425760E-04
(PID.TID 0000.0001) %MON advcfl_vvel_max              =   3.4894547197215E-04
(PID.TID 0000.0001) %MON advcfl_wvel_max              =   1.3390771264754E-03
(PID.TID 0000.0001) %MON advcfl_W_hf_max              =   1.3390771264754E-03
(PID.TID 0000.0001) %MON pe_b_mean                    =  -8.3172423156964E-01
(PID.TID 0000.0001) %MON ke_max                       =   5.4194797234717E-06
(PID.TID 0000.0001) %MON ke_mean                      =   1.2520928737053E-08
(PID.TID 0000.0001) %MON ke_vol                       =   4.2725476592690E+12
(PID.TID 0000.0001) // =======================================================
(PID.TID 0000.0001) // End MONITOR dynamic field statistics
(PID.TID 0000.0001) // =======================================================
(PID.TID 0000.0001) // =======================================================
(PID.TID 0000.0001) // Begin OBCS MONITOR field statistics
(PID.TID 0000.0001) // =======================================================
(PID.TID 0000.0001) %MON obc_N_vVel_max               =   2.3861245662817E-05
(PID.TID 0000.0001) %MON obc_N_vVel_min               =   2.3861245662817E-05
(PID.TID 0000.0001) %MON obc_N_vVel_mean              =   2.3861245662817E-05
(PID.TID 0000.0001) %MON obc_N_vVel_sd                =  -1.6233419521353E-23
(PID.TID 0000.0001) %MON obc_N_vVel_Int               =   1.5748422137459E+03
(PID.TID 0000.0001) // =======================================================
(PID.TID 0000.0001) // End OBCS MONITOR field statistics
(PID.TID 0000.0001) // =======================================================
 cg2d: Sum(rhs),rhsMax =   4.52097859215954E+00  2.99867163559271E+02
(PID.TID 0000.0001)      cg2d_init_res =   9.00158610511426E-06
(PID.TID 0000.0001)      cg2d_iters(min,last) =      -1      74
(PID.TID 0000.0001)      cg2d_last_res =   8.25171042686869E-12
(PID.TID 0000.0001) // =======================================================
(PID.TID 0000.0001) // Begin MONITOR dynamic field statistics
(PID.TID 0000.0001) // =======================================================
(PID.TID 0000.0001) %MON time_tsnumber                =                   169
(PID.TID 0000.0001) %MON time_secondsf                =   1.6900000000000E+04
(PID.TID 0000.0001) %MON dynstat_eta_max              =   5.7958479639945E+00
(PID.TID 0000.0001) %MON dynstat_eta_min              =  -1.4197342767608E+01
(PID.TID 0000.0001) %MON dynstat_eta_mean             =  -2.5105426424872E+00
(PID.TID 0000.0001) %MON dynstat_eta_sd               =   4.9522488013718E+00
(PID.TID 0000.0001) %MON dynstat_eta_del2             =   2.0714010050391E-01
(PID.TID 0000.0001) %MON dynstat_uvel_max             =   2.6459889641934E-03
(PID.TID 0000.0001) %MON dynstat_uvel_min             =  -2.8006172412454E-03
(PID.TID 0000.0001) %MON dynstat_uvel_mean            =  -4.3065642407816E-08
(PID.TID 0000.0001) %MON dynstat_uvel_sd              =   8.1028673962250E-05
(PID.TID 0000.0001) %MON dynstat_uvel_del2            =   3.9640707986373E-07
(PID.TID 0000.0001) %MON dynstat_vvel_max             =   3.5023544554615E-03
(PID.TID 0000.0001) %MON dynstat_vvel_min             =  -2.8357762764335E-03
(PID.TID 0000.0001) %MON dynstat_vvel_mean            =   2.3470481371198E-05
(PID.TID 0000.0001) %MON dynstat_vvel_sd              =   1.3418591610772E-04
(PID.TID 0000.0001) %MON dynstat_vvel_del2            =   6.1351039394200E-07
(PID.TID 0000.0001) %MON dynstat_wvel_max             =   2.6384132630661E-04
(PID.TID 0000.0001) %MON dynstat_wvel_min             =  -2.7016653650041E-04
(PID.TID 0000.0001) %MON dynstat_wvel_mean            =   7.4821065063609E-09
(PID.TID 0000.0001) %MON dynstat_wvel_sd              =   4.5817261839719E-05
(PID.TID 0000.0001) %MON dynstat_wvel_del2            =   2.4278688559011E-07
(PID.TID 0000.0001) %MON dynstat_theta_max            =   1.2000000000000E+00
(PID.TID 0000.0001) %MON dynstat_theta_min            =  -1.0000000000000E+00
(PID.TID 0000.0001) %MON dynstat_theta_mean           =   5.6911454655240E-01
(PID.TID 0000.0001) %MON dynstat_theta_sd             =   8.6858951644316E-01
(PID.TID 0000.0001) %MON dynstat_theta_del2           =   1.9170947263012E-06
(PID.TID 0000.0001) %MON dynstat_salt_max             =   3.4700000000000E+01
(PID.TID 0000.0001) %MON dynstat_salt_min             =   3.4000000000000E+01
(PID.TID 0000.0001) %MON dynstat_salt_mean            =   3.4499259970706E+01
(PID.TID 0000.0001) %MON dynstat_salt_sd              =   2.7636843127596E-01
(PID.TID 0000.0001) %MON dynstat_salt_del2            =   6.0963796686642E-07
(PID.TID 0000.0001) %MON advcfl_uvel_max              =   2.8006172412454E-04
(PID.TID 0000.0001) %MON advcfl_vvel_max              =   3.5023544554615E-04
(PID.TID 0000.0001) %MON advcfl_wvel_max              =   1.3508326825021E-03
(PID.TID 0000.0001) %MON advcfl_W_hf_max              =   1.3508326825021E-03
(PID.TID 0000.0001) %MON pe_b_mean                    =  -8.3173038570752E-01
(PID.TID 0000.0001) %MON ke_max                       =   5.4477371574796E-06
(PID.TID 0000.0001) %MON ke_mean                      =   1.2493305958140E-08
(PID.TID 0000.0001) %MON ke_vol                       =   4.2725475148176E+12
(PID.TID 0000.0001) // =======================================================
(PID.TID 0000.0001) // End MONITOR dynamic field statistics
(PID.TID 0000.0001) // =======================================================
(PID.TID 0000.0001) // =======================================================
(PID.TID 0000.0001) // Begin OBCS MONITOR field statistics
(PID.TID 0000.0001) // =======================================================
(PID.TID 0000.0001) %MON obc_N_vVel_max               =   2.2901124900629E-05
(PID.TID 0000.0001) %MON obc_N_vVel_min               =   2.2901124900629E-05
(PID.TID 0000.0001) %MON obc_N_vVel_mean              =   2.2901124900629E-05
(PID.TID 0000.0001) %MON obc_N_vVel_sd                =  -1.6130021944784E-23
(PID.TID 0000.0001) %MON obc_N_vVel_Int               =   1.5114742434415E+03
(PID.TID 0000.0001) // =======================================================
(PID.TID 0000.0001) // End OBCS MONITOR field statistics
(PID.TID 0000.0001) // =======================================================
 cg2d: Sum(rhs),rhsMax =   4.52101699456060E+00  2.99867245891127E+02
(PID.TID 0000.0001)      cg2d_init_res =   8.98146536945351E-06
(PID.TID 0000.0001)      cg2d_iters(min,last) =      -1      74
(PID.TID 0000.0001)      cg2d_last_res =   8.18787726716310E-12
(PID.TID 0000.0001) // =======================================================
(PID.TID 0000.0001) // Begin MONITOR dynamic field statistics
(PID.TID 0000.0001) // =======================================================
(PID.TID 0000.0001) %MON time_tsnumber                =                   170
(PID.TID 0000.0001) %MON time_secondsf                =   1.7000000000000E+04
(PID.TID 0000.0001) %MON dynstat_eta_max              =   5.7958122970163E+00
(PID.TID 0000.0001) %MON dynstat_eta_min              =  -1.4197383717268E+01
(PID.TID 0000.0001) %MON dynstat_eta_mean             =  -2.5105646570109E+00
(PID.TID 0000.0001) %MON dynstat_eta_sd               =   4.9522549015735E+00
(PID.TID 0000.0001) %MON dynstat_eta_del2             =   2.0714010249039E-01
(PID.TID 0000.0001) %MON dynstat_uvel_max             =   2.6504647832333E-03
(PID.TID 0000.0001) %MON dynstat_uvel_min             =  -2.8086654534789E-03
(PID.TID 0000.0001) %MON dynstat_uvel_mean            =  -3.6124333398080E-08
(PID.TID 0000.0001) %MON dynstat_uvel_sd              =   8.1197752636184E-05
(PID.TID 0000.0001) %MON dynstat_uvel_del2            =   3.9599966928228E-07
(PID.TID 0000.0001) %MON dynstat_vvel_max             =   3.5149535397405E-03
(PID.TID 0000.0001) %MON dynstat_vvel_min             =  -2.8473991645610E-03
(PID.TID 0000.0001) %MON dynstat_vvel_mean            =   2.2022712925905E-05
(PID.TID 0000.0001) %MON dynstat_vvel_sd              =   1.3411576716055E-04
(PID.TID 0000.0001) %MON dynstat_vvel_del2            =   6.1143305271089E-07
(PID.TID 0000.0001) %MON dynstat_wvel_max             =   2.6562644594039E-04
(PID.TID 0000.0001) %MON dynstat_wvel_min             =  -2.8017914586019E-04
(PID.TID 0000.0001) %MON dynstat_wvel_mean            =   4.2939095352702E-09
(PID.TID 0000.0001) %MON dynstat_wvel_sd              =   4.5626864922931E-05
(PID.TID 0000.0001) %MON dynstat_wvel_del2            =   2.4093402084768E-07
(PID.TID 0000.0001) %MON dynstat_theta_max            =   1.2000000000000E+00
(PID.TID 0000.0001) %MON dynstat_theta_min            =  -1.0000000000000E+00
(PID.TID 0000.0001) %MON dynstat_theta_mean           =   5.6911429293880E-01
(PID.TID 0000.0001) %MON dynstat_theta_sd             =   8.6858938094686E-01
(PID.TID 0000.0001) %MON dynstat_theta_del2           =   1.9087458763131E-06
(PID.TID 0000.0001) %MON dynstat_salt_max             =   3.4700000000000E+01
(PID.TID 0000.0001) %MON dynstat_salt_min             =   3.4000000000000E+01
(PID.TID 0000.0001) %MON dynstat_salt_mean            =   3.4499259868930E+01
(PID.TID 0000.0001) %MON dynstat_salt_sd              =   2.7636838249425E-01
(PID.TID 0000.0001) %MON dynstat_salt_del2            =   6.0704521610655E-07
(PID.TID 0000.0001) %MON advcfl_uvel_max              =   2.8086654534789E-04
(PID.TID 0000.0001) %MON advcfl_vvel_max              =   3.5149535397405E-04
(PID.TID 0000.0001) %MON advcfl_wvel_max              =   1.4008957293009E-03
(PID.TID 0000.0001) %MON advcfl_W_hf_max              =   1.4008957293009E-03
(PID.TID 0000.0001) %MON pe_b_mean                    =  -8.3173616969764E-01
(PID.TID 0000.0001) %MON ke_max                       =   5.4752940645985E-06
(PID.TID 0000.0001) %MON ke_mean                      =   1.2464601994882E-08
(PID.TID 0000.0001) %MON ke_vol                       =   4.2725473767036E+12
(PID.TID 0000.0001) // =======================================================
(PID.TID 0000.0001) // End MONITOR dynamic field statistics
(PID.TID 0000.0001) // =======================================================
(PID.TID 0000.0001) // =======================================================
(PID.TID 0000.0001) // Begin OBCS MONITOR field statistics
(PID.TID 0000.0001) // =======================================================
(PID.TID 0000.0001) %MON obc_N_vVel_max               =   2.1787922740356E-05
(PID.TID 0000.0001) %MON obc_N_vVel_min               =   2.1787922740356E-05
(PID.TID 0000.0001) %MON obc_N_vVel_mean              =   2.1787922740356E-05
(PID.TID 0000.0001) %MON obc_N_vVel_sd                =   1.4380373887290E-12
(PID.TID 0000.0001) %MON obc_N_vVel_Int               =   1.4380029008635E+03
(PID.TID 0000.0001) // =======================================================
(PID.TID 0000.0001) // End OBCS MONITOR field statistics
(PID.TID 0000.0001) // =======================================================
 cg2d: Sum(rhs),rhsMax =   4.52105293006473E+00  2.99867329011917E+02
(PID.TID 0000.0001)      cg2d_init_res =   8.95714790542344E-06
(PID.TID 0000.0001)      cg2d_iters(min,last) =      -1      74
(PID.TID 0000.0001)      cg2d_last_res =   8.17055257372123E-12
(PID.TID 0000.0001) // =======================================================
(PID.TID 0000.0001) // Begin MONITOR dynamic field statistics
(PID.TID 0000.0001) // =======================================================
(PID.TID 0000.0001) %MON time_tsnumber                =                   171
(PID.TID 0000.0001) %MON time_secondsf                =   1.7100000000000E+04
(PID.TID 0000.0001) %MON dynstat_eta_max              =   5.7957788202822E+00
(PID.TID 0000.0001) %MON dynstat_eta_min              =  -1.4197423477243E+01
(PID.TID 0000.0001) %MON dynstat_eta_mean             =  -2.5105853082593E+00
(PID.TID 0000.0001) %MON dynstat_eta_sd               =   4.9522604805635E+00
(PID.TID 0000.0001) %MON dynstat_eta_del2             =   2.0714010448281E-01
(PID.TID 0000.0001) %MON dynstat_uvel_max             =   2.6547476022998E-03
(PID.TID 0000.0001) %MON dynstat_uvel_min             =  -2.8165636326456E-03
(PID.TID 0000.0001) %MON dynstat_uvel_mean            =  -3.1762740745247E-08
(PID.TID 0000.0001) %MON dynstat_uvel_sd              =   8.1366316226998E-05
(PID.TID 0000.0001) %MON dynstat_uvel_del2            =   3.9557819688147E-07
(PID.TID 0000.0001) %MON dynstat_vvel_max             =   3.5273136553542E-03
(PID.TID 0000.0001) %MON dynstat_vvel_min             =  -2.8589553970697E-03
(PID.TID 0000.0001) %MON dynstat_vvel_mean            =   2.0483093341612E-05
(PID.TID 0000.0001) %MON dynstat_vvel_sd              =   1.3405631503867E-04
(PID.TID 0000.0001) %MON dynstat_vvel_del2            =   6.0958971959963E-07
(PID.TID 0000.0001) %MON dynstat_wvel_max             =   2.7493691976878E-04
(PID.TID 0000.0001) %MON dynstat_wvel_min             =  -2.8962817157699E-04
(PID.TID 0000.0001) %MON dynstat_wvel_mean            =   1.3746538542047E-09
(PID.TID 0000.0001) %MON dynstat_wvel_sd              =   4.5451452175779E-05
(PID.TID 0000.0001) %MON dynstat_wvel_del2            =   2.3933436483234E-07
(PID.TID 0000.0001) %MON dynstat_theta_max            =   1.2000000000000E+00
(PID.TID 0000.0001) %MON dynstat_theta_min            =  -1.0000000000000E+00
(PID.TID 0000.0001) %MON dynstat_theta_mean           =   5.6911403873641E-01
(PID.TID 0000.0001) %MON dynstat_theta_sd             =   8.6858924578377E-01
(PID.TID 0000.0001) %MON dynstat_theta_del2           =   1.9002276506381E-06
(PID.TID 0000.0001) %MON dynstat_salt_max             =   3.4700000000000E+01
(PID.TID 0000.0001) %MON dynstat_salt_min             =   3.4000000000000E+01
(PID.TID 0000.0001) %MON dynstat_salt_mean            =   3.4499259766965E+01
(PID.TID 0000.0001) %MON dynstat_salt_sd              =   2.7636833381779E-01
(PID.TID 0000.0001) %MON dynstat_salt_del2            =   6.0439959652251E-07
(PID.TID 0000.0001) %MON advcfl_uvel_max              =   2.8165636326456E-04
(PID.TID 0000.0001) %MON advcfl_vvel_max              =   3.5273136553542E-04
(PID.TID 0000.0001) %MON advcfl_wvel_max              =   1.4481408578850E-03
(PID.TID 0000.0001) %MON advcfl_W_hf_max              =   1.4481408578850E-03
(PID.TID 0000.0001) %MON pe_b_mean                    =  -8.3174156305673E-01
(PID.TID 0000.0001) %MON ke_max                       =   5.5022139563174E-06
(PID.TID 0000.0001) %MON ke_mean                      =   1.2437542740884E-08
(PID.TID 0000.0001) %MON ke_vol                       =   4.2725472459374E+12
(PID.TID 0000.0001) // =======================================================
(PID.TID 0000.0001) // End MONITOR dynamic field statistics
(PID.TID 0000.0001) // =======================================================
(PID.TID 0000.0001) // =======================================================
(PID.TID 0000.0001) // Begin OBCS MONITOR field statistics
(PID.TID 0000.0001) // =======================================================
(PID.TID 0000.0001) %MON obc_N_vVel_max               =   2.0561060380228E-05
(PID.TID 0000.0001) %MON obc_N_vVel_min               =   2.0561060380228E-05
(PID.TID 0000.0001) %MON obc_N_vVel_mean              =   2.0561060380228E-05
(PID.TID 0000.0001) %MON obc_N_vVel_sd                =  -8.4269024903840E-24
(PID.TID 0000.0001) %MON obc_N_vVel_Int               =   1.3570299850950E+03
(PID.TID 0000.0001) // =======================================================
(PID.TID 0000.0001) // End OBCS MONITOR field statistics
(PID.TID 0000.0001) // =======================================================
 cg2d: Sum(rhs),rhsMax =   4.52108625264249E+00  2.99867412809823E+02
(PID.TID 0000.0001)      cg2d_init_res =   8.93183643575531E-06
(PID.TID 0000.0001)      cg2d_iters(min,last) =      -1      74
(PID.TID 0000.0001)      cg2d_last_res =   8.08795247914268E-12
(PID.TID 0000.0001) // =======================================================
(PID.TID 0000.0001) // Begin MONITOR dynamic field statistics
(PID.TID 0000.0001) // =======================================================
(PID.TID 0000.0001) %MON time_tsnumber                =                   172
(PID.TID 0000.0001) %MON time_secondsf                =   1.7200000000000E+04
(PID.TID 0000.0001) %MON dynstat_eta_max              =   5.7957475997661E+00
(PID.TID 0000.0001) %MON dynstat_eta_min              =  -1.4197461951462E+01
(PID.TID 0000.0001) %MON dynstat_eta_mean             =  -2.5106045142036E+00
(PID.TID 0000.0001) %MON dynstat_eta_sd               =   4.9522655475968E+00
(PID.TID 0000.0001) %MON dynstat_eta_del2             =   2.0714010647756E-01
(PID.TID 0000.0001) %MON dynstat_uvel_max             =   2.6588389060969E-03
(PID.TID 0000.0001) %MON dynstat_uvel_min             =  -2.8243123382943E-03
(PID.TID 0000.0001) %MON dynstat_uvel_mean            =  -2.9904083162696E-08
(PID.TID 0000.0001) %MON dynstat_uvel_sd              =   8.1534342792904E-05
(PID.TID 0000.0001) %MON dynstat_uvel_del2            =   3.9514322580756E-07
(PID.TID 0000.0001) %MON dynstat_vvel_max             =   3.5394946665832E-03
(PID.TID 0000.0001) %MON dynstat_vvel_min             =  -2.8703865609998E-03
(PID.TID 0000.0001) %MON dynstat_vvel_mean            =   1.8898295913966E-05
(PID.TID 0000.0001) %MON dynstat_vvel_sd              =   1.3401455431086E-04
(PID.TID 0000.0001) %MON dynstat_vvel_del2            =   6.0808108591732E-07
(PID.TID 0000.0001) %MON dynstat_wvel_max             =   2.8012410202759E-04
(PID.TID 0000.0001) %MON dynstat_wvel_min             =  -2.9923061790267E-04
(PID.TID 0000.0001) %MON dynstat_wvel_mean            =  -1.2161777178209E-09
(PID.TID 0000.0001) %MON dynstat_wvel_sd              =   4.5299890352118E-05
(PID.TID 0000.0001) %MON dynstat_wvel_del2            =   2.3810145307274E-07
(PID.TID 0000.0001) %MON dynstat_theta_max            =   1.2000000000000E+00
(PID.TID 0000.0001) %MON dynstat_theta_min            =  -1.0000000000000E+00
(PID.TID 0000.0001) %MON dynstat_theta_mean           =   5.6911378392025E-01
(PID.TID 0000.0001) %MON dynstat_theta_sd             =   8.6858911098059E-01
(PID.TID 0000.0001) %MON dynstat_theta_del2           =   1.8914676476502E-06
(PID.TID 0000.0001) %MON dynstat_salt_max             =   3.4700000000000E+01
(PID.TID 0000.0001) %MON dynstat_salt_min             =   3.4000000000000E+01
(PID.TID 0000.0001) %MON dynstat_salt_mean            =   3.4499259664804E+01
(PID.TID 0000.0001) %MON dynstat_salt_sd              =   2.7636828525465E-01
(PID.TID 0000.0001) %MON dynstat_salt_del2            =   6.0167827807205E-07
(PID.TID 0000.0001) %MON advcfl_uvel_max              =   2.8243123382943E-04
(PID.TID 0000.0001) %MON advcfl_vvel_max              =   3.5394946665832E-04
(PID.TID 0000.0001) %MON advcfl_wvel_max              =   1.4961530895134E-03
(PID.TID 0000.0001) %MON advcfl_W_hf_max              =   1.4961530895134E-03
(PID.TID 0000.0001) %MON pe_b_mean                    =  -8.3174655695544E-01
(PID.TID 0000.0001) %MON ke_max                       =   5.5285602538817E-06
(PID.TID 0000.0001) %MON ke_mean                      =   1.2414357450171E-08
(PID.TID 0000.0001) %MON ke_vol                       =   4.2725471232689E+12
(PID.TID 0000.0001) // =======================================================
(PID.TID 0000.0001) // End MONITOR dynamic field statistics
(PID.TID 0000.0001) // =======================================================
(PID.TID 0000.0001) // =======================================================
(PID.TID 0000.0001) // Begin OBCS MONITOR field statistics
(PID.TID 0000.0001) // =======================================================
(PID.TID 0000.0001) %MON obc_N_vVel_max               =   1.9260370797346E-05
(PID.TID 0000.0001) %MON obc_N_vVel_min               =   1.9260370797346E-05
(PID.TID 0000.0001) %MON obc_N_vVel_mean              =   1.9260370797346E-05
(PID.TID 0000.0001) %MON obc_N_vVel_sd                =  -2.0162527430980E-24
(PID.TID 0000.0001) %MON obc_N_vVel_Int               =   1.2711844726248E+03
(PID.TID 0000.0001) // =======================================================
(PID.TID 0000.0001) // End OBCS MONITOR field statistics
(PID.TID 0000.0001) // =======================================================
 cg2d: Sum(rhs),rhsMax =   4.52111689486083E+00  2.99867497157428E+02
(PID.TID 0000.0001)      cg2d_init_res =   8.90799407995877E-06
(PID.TID 0000.0001)      cg2d_iters(min,last) =      -1      74
(PID.TID 0000.0001)      cg2d_last_res =   7.89969563432811E-12
(PID.TID 0000.0001) // =======================================================
(PID.TID 0000.0001) // Begin MONITOR dynamic field statistics
(PID.TID 0000.0001) // =======================================================
(PID.TID 0000.0001) %MON time_tsnumber                =                   173
(PID.TID 0000.0001) %MON time_secondsf                =   1.7300000000000E+04
(PID.TID 0000.0001) %MON dynstat_eta_max              =   5.7957186378692E+00
(PID.TID 0000.0001) %MON dynstat_eta_min              =  -1.4197499083888E+01
(PID.TID 0000.0001) %MON dynstat_eta_mean             =  -2.5106222363298E+00
(PID.TID 0000.0001) %MON dynstat_eta_sd               =   4.9522701248306E+00
(PID.TID 0000.0001) %MON dynstat_eta_del2             =   2.0714010847118E-01
(PID.TID 0000.0001) %MON dynstat_uvel_max             =   2.6627402410782E-03
(PID.TID 0000.0001) %MON dynstat_uvel_min             =  -2.8319120596123E-03
(PID.TID 0000.0001) %MON dynstat_uvel_mean            =  -3.0410244852981E-08
(PID.TID 0000.0001) %MON dynstat_uvel_sd              =   8.1701830577826E-05
(PID.TID 0000.0001) %MON dynstat_uvel_del2            =   3.9469531700616E-07
(PID.TID 0000.0001) %MON dynstat_vvel_max             =   3.5515531604524E-03
(PID.TID 0000.0001) %MON dynstat_vvel_min             =  -2.8816375055110E-03
(PID.TID 0000.0001) %MON dynstat_vvel_mean            =   1.7313112208929E-05
(PID.TID 0000.0001) %MON dynstat_vvel_sd              =   1.3399494716315E-04
(PID.TID 0000.0001) %MON dynstat_vvel_del2            =   6.0695914276830E-07
(PID.TID 0000.0001) %MON dynstat_wvel_max             =   2.8308534416691E-04
(PID.TID 0000.0001) %MON dynstat_wvel_min             =  -3.0268437380891E-04
(PID.TID 0000.0001) %MON dynstat_wvel_mean            =  -3.4317316554389E-09
(PID.TID 0000.0001) %MON dynstat_wvel_sd              =   4.5177614907155E-05
(PID.TID 0000.0001) %MON dynstat_wvel_del2            =   2.3729637692854E-07
(PID.TID 0000.0001) %MON dynstat_theta_max            =   1.2000000000000E+00
(PID.TID 0000.0001) %MON dynstat_theta_min            =  -1.0000000000000E+00
(PID.TID 0000.0001) %MON dynstat_theta_mean           =   5.6911352848284E-01
(PID.TID 0000.0001) %MON dynstat_theta_sd             =   8.6858897653283E-01
(PID.TID 0000.0001) %MON dynstat_theta_del2           =   1.8824391579281E-06
(PID.TID 0000.0001) %MON dynstat_salt_max             =   3.4700000000000E+01
(PID.TID 0000.0001) %MON dynstat_salt_min             =   3.4000000000000E+01
(PID.TID 0000.0001) %MON dynstat_salt_mean            =   3.4499259562444E+01
(PID.TID 0000.0001) %MON dynstat_salt_sd              =   2.7636823680351E-01
(PID.TID 0000.0001) %MON dynstat_salt_del2            =   5.9887285474160E-07
(PID.TID 0000.0001) %MON advcfl_uvel_max              =   2.8319120596123E-04
(PID.TID 0000.0001) %MON advcfl_vvel_max              =   3.5515531604524E-04
(PID.TID 0000.0001) %MON advcfl_wvel_max              =   1.5134218690446E-03
(PID.TID 0000.0001) %MON advcfl_W_hf_max              =   1.5134218690446E-03
(PID.TID 0000.0001) %MON pe_b_mean                    =  -8.3175115368417E-01
(PID.TID 0000.0001) %MON ke_max                       =   5.5543945412386E-06
(PID.TID 0000.0001) %MON ke_mean                      =   1.2396622873638E-08
(PID.TID 0000.0001) %MON ke_vol                       =   4.2725470091856E+12
(PID.TID 0000.0001) // =======================================================
(PID.TID 0000.0001) // End MONITOR dynamic field statistics
(PID.TID 0000.0001) // =======================================================
(PID.TID 0000.0001) // =======================================================
(PID.TID 0000.0001) // Begin OBCS MONITOR field statistics
(PID.TID 0000.0001) // =======================================================
(PID.TID 0000.0001) %MON obc_N_vVel_max               =   1.7925017358967E-05
(PID.TID 0000.0001) %MON obc_N_vVel_min               =   1.7925017358967E-05
(PID.TID 0000.0001) %MON obc_N_vVel_mean              =   1.7925017358967E-05
(PID.TID 0000.0001) %MON obc_N_vVel_sd                =  -9.6159746209289E-24
(PID.TID 0000.0001) %MON obc_N_vVel_Int               =   1.1830511456918E+03
(PID.TID 0000.0001) // =======================================================
(PID.TID 0000.0001) // End OBCS MONITOR field statistics
(PID.TID 0000.0001) // =======================================================
 cg2d: Sum(rhs),rhsMax =   4.52114486451163E+00  2.99867581914861E+02
(PID.TID 0000.0001)      cg2d_init_res =   8.88702049857688E-06
(PID.TID 0000.0001)      cg2d_iters(min,last) =      -1      74
(PID.TID 0000.0001)      cg2d_last_res =   7.74911112025323E-12
(PID.TID 0000.0001) // =======================================================
(PID.TID 0000.0001) // Begin MONITOR dynamic field statistics
(PID.TID 0000.0001) // =======================================================
(PID.TID 0000.0001) %MON time_tsnumber                =                   174
(PID.TID 0000.0001) %MON time_secondsf                =   1.7400000000000E+04
(PID.TID 0000.0001) %MON dynstat_eta_max              =   5.7956918775826E+00
(PID.TID 0000.0001) %MON dynstat_eta_min              =  -1.4197534857455E+01
(PID.TID 0000.0001) %MON dynstat_eta_mean             =  -2.5106384777924E+00
(PID.TID 0000.0001) %MON dynstat_eta_sd               =   4.9522742458848E+00
(PID.TID 0000.0001) %MON dynstat_eta_del2             =   2.0714011046033E-01
(PID.TID 0000.0001) %MON dynstat_uvel_max             =   2.6664531872207E-03
(PID.TID 0000.0001) %MON dynstat_uvel_min             =  -2.8393632379959E-03
(PID.TID 0000.0001) %MON dynstat_uvel_mean            =  -3.3091910396606E-08
(PID.TID 0000.0001) %MON dynstat_uvel_sd              =   8.1868798580080E-05
(PID.TID 0000.0001) %MON dynstat_uvel_del2            =   3.9423503156435E-07
(PID.TID 0000.0001) %MON dynstat_vvel_max             =   3.5635411718520E-03
(PID.TID 0000.0001) %MON dynstat_vvel_min             =  -2.8926576017927E-03
(PID.TID 0000.0001) %MON dynstat_vvel_mean            =   1.5769390404009E-05
(PID.TID 0000.0001) %MON dynstat_vvel_sd              =   1.3399896477481E-04
(PID.TID 0000.0001) %MON dynstat_vvel_del2            =   6.0622168309672E-07
(PID.TID 0000.0001) %MON dynstat_wvel_max             =   2.9010183974811E-04
(PID.TID 0000.0001) %MON dynstat_wvel_min             =  -2.9994286980772E-04
(PID.TID 0000.0001) %MON dynstat_wvel_mean            =  -5.2382043334253E-09
(PID.TID 0000.0001) %MON dynstat_wvel_sd              =   4.5086001804266E-05
(PID.TID 0000.0001) %MON dynstat_wvel_del2            =   2.3692023318668E-07
(PID.TID 0000.0001) %MON dynstat_theta_max            =   1.2000000000000E+00
(PID.TID 0000.0001) %MON dynstat_theta_min            =  -1.0000000000000E+00
(PID.TID 0000.0001) %MON dynstat_theta_mean           =   5.6911327243333E-01
(PID.TID 0000.0001) %MON dynstat_theta_sd             =   8.6858884228980E-01
(PID.TID 0000.0001) %MON dynstat_theta_del2           =   1.8731596760726E-06
(PID.TID 0000.0001) %MON dynstat_salt_max             =   3.4700000000000E+01
(PID.TID 0000.0001) %MON dynstat_salt_min             =   3.4000000000000E+01
(PID.TID 0000.0001) %MON dynstat_salt_mean            =   3.4499259459889E+01
(PID.TID 0000.0001) %MON dynstat_salt_sd              =   2.7636818841645E-01
(PID.TID 0000.0001) %MON dynstat_salt_del2            =   5.9598912819146E-07
(PID.TID 0000.0001) %MON advcfl_uvel_max              =   2.8393632379959E-04
(PID.TID 0000.0001) %MON advcfl_vvel_max              =   3.5635411718520E-04
(PID.TID 0000.0001) %MON advcfl_wvel_max              =   1.4997143490386E-03
(PID.TID 0000.0001) %MON advcfl_W_hf_max              =   1.4997143490386E-03
(PID.TID 0000.0001) %MON pe_b_mean                    =  -8.3175536585934E-01
(PID.TID 0000.0001) %MON ke_max                       =   5.5797749952699E-06
(PID.TID 0000.0001) %MON ke_mean                      =   1.2385191032901E-08
(PID.TID 0000.0001) %MON ke_vol                       =   4.2725469039162E+12
(PID.TID 0000.0001) // =======================================================
(PID.TID 0000.0001) // End MONITOR dynamic field statistics
(PID.TID 0000.0001) // =======================================================
(PID.TID 0000.0001) // =======================================================
(PID.TID 0000.0001) // Begin OBCS MONITOR field statistics
(PID.TID 0000.0001) // =======================================================
(PID.TID 0000.0001) %MON obc_N_vVel_max               =   1.6592501835511E-05
(PID.TID 0000.0001) %MON obc_N_vVel_min               =   1.6592501835510E-05
(PID.TID 0000.0001) %MON obc_N_vVel_mean              =   1.6592501835510E-05
(PID.TID 0000.0001) %MON obc_N_vVel_sd                =   3.8046893065897E-12
(PID.TID 0000.0001) %MON obc_N_vVel_Int               =   1.0951051211437E+03
(PID.TID 0000.0001) // =======================================================
(PID.TID 0000.0001) // End OBCS MONITOR field statistics
(PID.TID 0000.0001) // =======================================================
 cg2d: Sum(rhs),rhsMax =   4.52117023944263E+00  2.99867666934711E+02
(PID.TID 0000.0001)      cg2d_init_res =   8.86916783365184E-06
(PID.TID 0000.0001)      cg2d_iters(min,last) =      -1      74
(PID.TID 0000.0001)      cg2d_last_res =   7.53296990323355E-12
(PID.TID 0000.0001) // =======================================================
(PID.TID 0000.0001) // Begin MONITOR dynamic field statistics
(PID.TID 0000.0001) // =======================================================
(PID.TID 0000.0001) %MON time_tsnumber                =                   175
(PID.TID 0000.0001) %MON time_secondsf                =   1.7500000000000E+04
(PID.TID 0000.0001) %MON dynstat_eta_max              =   5.7956672078599E+00
(PID.TID 0000.0001) %MON dynstat_eta_min              =  -1.4197569292022E+01
(PID.TID 0000.0001) %MON dynstat_eta_mean             =  -2.5106532805858E+00
(PID.TID 0000.0001) %MON dynstat_eta_sd               =   4.9522779541959E+00
(PID.TID 0000.0001) %MON dynstat_eta_del2             =   2.0714011244189E-01
(PID.TID 0000.0001) %MON dynstat_uvel_max             =   2.6699793328966E-03
(PID.TID 0000.0001) %MON dynstat_uvel_min             =  -2.8466662870201E-03
(PID.TID 0000.0001) %MON dynstat_uvel_mean            =  -3.7718715756654E-08
(PID.TID 0000.0001) %MON dynstat_uvel_sd              =   8.2035286750019E-05
(PID.TID 0000.0001) %MON dynstat_uvel_del2            =   3.9376293013794E-07
(PID.TID 0000.0001) %MON dynstat_vvel_max             =   3.5755051122148E-03
(PID.TID 0000.0001) %MON dynstat_vvel_min             =  -2.9034018015199E-03
(PID.TID 0000.0001) %MON dynstat_vvel_mean            =   1.4305121925627E-05
(PID.TID 0000.0001) %MON dynstat_vvel_sd              =   1.3402503587519E-04
(PID.TID 0000.0001) %MON dynstat_vvel_del2            =   6.0581435336384E-07
(PID.TID 0000.0001) %MON dynstat_wvel_max             =   2.9237112314095E-04
(PID.TID 0000.0001) %MON dynstat_wvel_min             =  -2.9109189905779E-04
(PID.TID 0000.0001) %MON dynstat_wvel_mean            =  -6.6148669169231E-09
(PID.TID 0000.0001) %MON dynstat_wvel_sd              =   4.5022312155952E-05
(PID.TID 0000.0001) %MON dynstat_wvel_del2            =   2.3691569006162E-07
(PID.TID 0000.0001) %MON dynstat_theta_max            =   1.2000000000000E+00
(PID.TID 0000.0001) %MON dynstat_theta_min            =  -1.0000000000000E+00
(PID.TID 0000.0001) %MON dynstat_theta_mean           =   5.6911301579602E-01
(PID.TID 0000.0001) %MON dynstat_theta_sd             =   8.6858870816442E-01
(PID.TID 0000.0001) %MON dynstat_theta_del2           =   1.8636912858640E-06
(PID.TID 0000.0001) %MON dynstat_salt_max             =   3.4700000000000E+01
(PID.TID 0000.0001) %MON dynstat_salt_min             =   3.4000000000000E+01
(PID.TID 0000.0001) %MON dynstat_salt_mean            =   3.4499259357146E+01
(PID.TID 0000.0001) %MON dynstat_salt_sd              =   2.7636814006560E-01
(PID.TID 0000.0001) %MON dynstat_salt_del2            =   5.9304702482851E-07
(PID.TID 0000.0001) %MON advcfl_uvel_max              =   2.8466662870201E-04
(PID.TID 0000.0001) %MON advcfl_vvel_max              =   3.5755051122148E-04
(PID.TID 0000.0001) %MON advcfl_wvel_max              =   1.4618556157047E-03
(PID.TID 0000.0001) %MON advcfl_W_hf_max              =   1.4618556157047E-03
(PID.TID 0000.0001) %MON pe_b_mean                    =  -8.3175921540839E-01
(PID.TID 0000.0001) %MON ke_max                       =   5.6047550216565E-06
(PID.TID 0000.0001) %MON ke_mean                      =   1.2380201271397E-08
(PID.TID 0000.0001) %MON ke_vol                       =   4.2725468074419E+12
(PID.TID 0000.0001) // =======================================================
(PID.TID 0000.0001) // End MONITOR dynamic field statistics
(PID.TID 0000.0001) // =======================================================
(PID.TID 0000.0001) // =======================================================
(PID.TID 0000.0001) // Begin OBCS MONITOR field statistics
(PID.TID 0000.0001) // =======================================================
(PID.TID 0000.0001) %MON obc_N_vVel_max               =   1.5297780241469E-05
(PID.TID 0000.0001) %MON obc_N_vVel_min               =   1.5297780241469E-05
(PID.TID 0000.0001) %MON obc_N_vVel_mean              =   1.5297780241469E-05
(PID.TID 0000.0001) %MON obc_N_vVel_sd                =   4.6207791076316E-12
(PID.TID 0000.0001) %MON obc_N_vVel_Int               =   1.0096534959369E+03
(PID.TID 0000.0001) // =======================================================
(PID.TID 0000.0001) // End OBCS MONITOR field statistics
(PID.TID 0000.0001) // =======================================================
 cg2d: Sum(rhs),rhsMax =   4.52119316087748E+00  2.99867752066557E+02
(PID.TID 0000.0001)      cg2d_init_res =   8.85356421982391E-06
(PID.TID 0000.0001)      cg2d_iters(min,last) =      -1      73
(PID.TID 0000.0001)      cg2d_last_res =   9.82409286760247E-12
(PID.TID 0000.0001) // =======================================================
(PID.TID 0000.0001) // Begin MONITOR dynamic field statistics
(PID.TID 0000.0001) // =======================================================
(PID.TID 0000.0001) %MON time_tsnumber                =                   176
(PID.TID 0000.0001) %MON time_secondsf                =   1.7600000000000E+04
(PID.TID 0000.0001) %MON dynstat_eta_max              =   5.7956444697511E+00
(PID.TID 0000.0001) %MON dynstat_eta_min              =  -1.4197602441342E+01
(PID.TID 0000.0001) %MON dynstat_eta_mean             =  -2.5106667218723E+00
(PID.TID 0000.0001) %MON dynstat_eta_sd               =   4.9522813012212E+00
(PID.TID 0000.0001) %MON dynstat_eta_del2             =   2.0714011441319E-01
(PID.TID 0000.0001) %MON dynstat_uvel_max             =   2.6733202543916E-03
(PID.TID 0000.0001) %MON dynstat_uvel_min             =  -2.8538216095448E-03
(PID.TID 0000.0001) %MON dynstat_uvel_mean            =  -4.4029409037153E-08
(PID.TID 0000.0001) %MON dynstat_uvel_sd              =   8.2201355878570E-05
(PID.TID 0000.0001) %MON dynstat_uvel_del2            =   3.9327957435412E-07
(PID.TID 0000.0001) %MON dynstat_vvel_max             =   3.5874849085449E-03
(PID.TID 0000.0001) %MON dynstat_vvel_min             =  -2.9138314862456E-03
(PID.TID 0000.0001) %MON dynstat_vvel_mean            =   1.2953690748737E-05
(PID.TID 0000.0001) %MON dynstat_vvel_sd              =   1.3406889403741E-04
(PID.TID 0000.0001) %MON dynstat_vvel_del2            =   6.0563976547899E-07
(PID.TID 0000.0001) %MON dynstat_wvel_max             =   2.8980278488873E-04
(PID.TID 0000.0001) %MON dynstat_wvel_min             =  -2.7634845808911E-04
(PID.TID 0000.0001) %MON dynstat_wvel_mean            =  -7.5537096919388E-09
(PID.TID 0000.0001) %MON dynstat_wvel_sd              =   4.4980206396092E-05
(PID.TID 0000.0001) %MON dynstat_wvel_del2            =   2.3717725573364E-07
(PID.TID 0000.0001) %MON dynstat_theta_max            =   1.2000000000000E+00
(PID.TID 0000.0001) %MON dynstat_theta_min            =  -1.0000000000000E+00
(PID.TID 0000.0001) %MON dynstat_theta_mean           =   5.6911275860872E-01
(PID.TID 0000.0001) %MON dynstat_theta_sd             =   8.6858857407716E-01
(PID.TID 0000.0001) %MON dynstat_theta_del2           =   1.8541325332770E-06
(PID.TID 0000.0001) %MON dynstat_salt_max             =   3.4700000000000E+01
(PID.TID 0000.0001) %MON dynstat_salt_min             =   3.4000000000000E+01
(PID.TID 0000.0001) %MON dynstat_salt_mean            =   3.4499259254227E+01
(PID.TID 0000.0001) %MON dynstat_salt_sd              =   2.7636809172570E-01
(PID.TID 0000.0001) %MON dynstat_salt_del2            =   5.9007805279438E-07
(PID.TID 0000.0001) %MON advcfl_uvel_max              =   2.8538216095448E-04
(PID.TID 0000.0001) %MON advcfl_vvel_max              =   3.5874849085449E-04
(PID.TID 0000.0001) %MON advcfl_wvel_max              =   1.4490139244437E-03
(PID.TID 0000.0001) %MON advcfl_W_hf_max              =   1.4490139244437E-03
(PID.TID 0000.0001) %MON pe_b_mean                    =  -8.3176273237633E-01
(PID.TID 0000.0001) %MON ke_max                       =   5.6293821036235E-06
(PID.TID 0000.0001) %MON ke_mean                      =   1.2381168593661E-08
(PID.TID 0000.0001) %MON ke_vol                       =   4.2725467195133E+12
(PID.TID 0000.0001) // =======================================================
(PID.TID 0000.0001) // End MONITOR dynamic field statistics
(PID.TID 0000.0001) // =======================================================
(PID.TID 0000.0001) // =======================================================
(PID.TID 0000.0001) // Begin OBCS MONITOR field statistics
(PID.TID 0000.0001) // =======================================================
(PID.TID 0000.0001) %MON obc_N_vVel_max               =   1.4072505036885E-05
(PID.TID 0000.0001) %MON obc_N_vVel_min               =   1.4072505036884E-05
(PID.TID 0000.0001) %MON obc_N_vVel_mean              =   1.4072505036884E-05
(PID.TID 0000.0001) %MON obc_N_vVel_sd                =   3.6486213811898E-12
(PID.TID 0000.0001) %MON obc_N_vVel_Int               =   9.2878533243437E+02
(PID.TID 0000.0001) // =======================================================
(PID.TID 0000.0001) // End OBCS MONITOR field statistics
(PID.TID 0000.0001) // =======================================================
 cg2d: Sum(rhs),rhsMax =   4.52121382550286E+00  2.99867837161158E+02
(PID.TID 0000.0001)      cg2d_init_res =   8.83857190902974E-06
(PID.TID 0000.0001)      cg2d_iters(min,last) =      -1      73
(PID.TID 0000.0001)      cg2d_last_res =   9.39402556291869E-12
(PID.TID 0000.0001) // =======================================================
(PID.TID 0000.0001) // Begin MONITOR dynamic field statistics
(PID.TID 0000.0001) // =======================================================
(PID.TID 0000.0001) %MON time_tsnumber                =                   177
(PID.TID 0000.0001) %MON time_secondsf                =   1.7700000000000E+04
(PID.TID 0000.0001) %MON dynstat_eta_max              =   5.7956234650814E+00
(PID.TID 0000.0001) %MON dynstat_eta_min              =  -1.4197634389551E+01
(PID.TID 0000.0001) %MON dynstat_eta_mean             =  -2.5106789096235E+00
(PID.TID 0000.0001) %MON dynstat_eta_sd               =   4.9522843445546E+00
(PID.TID 0000.0001) %MON dynstat_eta_del2             =   2.0714011637102E-01
(PID.TID 0000.0001) %MON dynstat_uvel_max             =   2.6764774918675E-03
(PID.TID 0000.0001) %MON dynstat_uvel_min             =  -2.8608296152903E-03
(PID.TID 0000.0001) %MON dynstat_uvel_mean            =  -5.1740978963579E-08
(PID.TID 0000.0001) %MON dynstat_uvel_sd              =   8.2367086507777E-05
(PID.TID 0000.0001) %MON dynstat_uvel_del2            =   3.9278552281580E-07
(PID.TID 0000.0001) %MON dynstat_vvel_max             =   3.5995134449944E-03
(PID.TID 0000.0001) %MON dynstat_vvel_min             =  -2.9239150258391E-03
(PID.TID 0000.0001) %MON dynstat_vvel_mean            =   1.1743295827291E-05
(PID.TID 0000.0001) %MON dynstat_vvel_sd              =   1.3412426221917E-04
(PID.TID 0000.0001) %MON dynstat_vvel_del2            =   6.0557206326040E-07
(PID.TID 0000.0001) %MON dynstat_wvel_max             =   2.8239106580518E-04
(PID.TID 0000.0001) %MON dynstat_wvel_min             =  -2.5605668299384E-04
(PID.TID 0000.0001) %MON dynstat_wvel_mean            =  -8.0589001719489E-09
(PID.TID 0000.0001) %MON dynstat_wvel_sd              =   4.4950731295088E-05
(PID.TID 0000.0001) %MON dynstat_wvel_del2            =   2.3756807278521E-07
(PID.TID 0000.0001) %MON dynstat_theta_max            =   1.2000000000000E+00
(PID.TID 0000.0001) %MON dynstat_theta_min            =  -1.0000000000000E+00
(PID.TID 0000.0001) %MON dynstat_theta_mean           =   5.6911250092012E-01
(PID.TID 0000.0001) %MON dynstat_theta_sd             =   8.6858844014062E-01
(PID.TID 0000.0001) %MON dynstat_theta_del2           =   1.8446022763569E-06
(PID.TID 0000.0001) %MON dynstat_salt_max             =   3.4700000000000E+01
(PID.TID 0000.0001) %MON dynstat_salt_min             =   3.4000000000000E+01
(PID.TID 0000.0001) %MON dynstat_salt_mean            =   3.4499259151147E+01
(PID.TID 0000.0001) %MON dynstat_salt_sd              =   2.7636804343244E-01
(PID.TID 0000.0001) %MON dynstat_salt_del2            =   5.8712007341931E-07
(PID.TID 0000.0001) %MON advcfl_uvel_max              =   2.8608296152903E-04
(PID.TID 0000.0001) %MON advcfl_vvel_max              =   3.5995134449944E-04
(PID.TID 0000.0001) %MON advcfl_wvel_max              =   1.4119553290259E-03
(PID.TID 0000.0001) %MON advcfl_W_hf_max              =   1.4119553290259E-03
(PID.TID 0000.0001) %MON pe_b_mean                    =  -8.3176595359325E-01
(PID.TID 0000.0001) %MON ke_max                       =   5.6536969797722E-06
(PID.TID 0000.0001) %MON ke_mean                      =   1.2387132293899E-08
(PID.TID 0000.0001) %MON ke_vol                       =   4.2725466396721E+12
(PID.TID 0000.0001) // =======================================================
(PID.TID 0000.0001) // End MONITOR dynamic field statistics
(PID.TID 0000.0001) // =======================================================
(PID.TID 0000.0001) // =======================================================
(PID.TID 0000.0001) // Begin OBCS MONITOR field statistics
(PID.TID 0000.0001) // =======================================================
(PID.TID 0000.0001) %MON obc_N_vVel_max               =   1.2944410230975E-05
(PID.TID 0000.0001) %MON obc_N_vVel_min               =   1.2944410230974E-05
(PID.TID 0000.0001) %MON obc_N_vVel_mean              =   1.2944410230975E-05
(PID.TID 0000.0001) %MON obc_N_vVel_sd                =  -8.1942579431034E-24
(PID.TID 0000.0001) %MON obc_N_vVel_Int               =   8.5433107524433E+02
(PID.TID 0000.0001) // =======================================================
(PID.TID 0000.0001) // End OBCS MONITOR field statistics
(PID.TID 0000.0001) // =======================================================
 cg2d: Sum(rhs),rhsMax =   4.52123247662385E+00  2.99867922074398E+02
(PID.TID 0000.0001)      cg2d_init_res =   8.82156736121645E-06
(PID.TID 0000.0001)      cg2d_iters(min,last) =      -1      73
(PID.TID 0000.0001)      cg2d_last_res =   9.07404224469070E-12
(PID.TID 0000.0001) // =======================================================
(PID.TID 0000.0001) // Begin MONITOR dynamic field statistics
(PID.TID 0000.0001) // =======================================================
(PID.TID 0000.0001) %MON time_tsnumber                =                   178
(PID.TID 0000.0001) %MON time_secondsf                =   1.7800000000000E+04
(PID.TID 0000.0001) %MON dynstat_eta_max              =   5.7956039622079E+00
(PID.TID 0000.0001) %MON dynstat_eta_min              =  -1.4197665246868E+01
(PID.TID 0000.0001) %MON dynstat_eta_mean             =  -2.5106899777416E+00
(PID.TID 0000.0001) %MON dynstat_eta_sd               =   4.9522871460009E+00
(PID.TID 0000.0001) %MON dynstat_eta_del2             =   2.0714011831382E-01
(PID.TID 0000.0001) %MON dynstat_uvel_max             =   2.6794525547196E-03
(PID.TID 0000.0001) %MON dynstat_uvel_min             =  -2.8676907278609E-03
(PID.TID 0000.0001) %MON dynstat_uvel_mean            =  -6.0558057949560E-08
(PID.TID 0000.0001) %MON dynstat_uvel_sd              =   8.2532578032924E-05
(PID.TID 0000.0001) %MON dynstat_uvel_del2            =   3.9228132912633E-07
(PID.TID 0000.0001) %MON dynstat_vvel_max             =   3.6116160534068E-03
(PID.TID 0000.0001) %MON dynstat_vvel_min             =  -2.9336282662902E-03
(PID.TID 0000.0001) %MON dynstat_vvel_mean            =   1.0696548506016E-05
(PID.TID 0000.0001) %MON dynstat_vvel_sd              =   1.3418377855111E-04
(PID.TID 0000.0001) %MON dynstat_vvel_del2            =   6.0547462097447E-07
(PID.TID 0000.0001) %MON dynstat_wvel_max             =   2.7021696268179E-04
(PID.TID 0000.0001) %MON dynstat_wvel_min             =  -2.3068083733205E-04
(PID.TID 0000.0001) %MON dynstat_wvel_mean            =  -8.1457101529283E-09
(PID.TID 0000.0001) %MON dynstat_wvel_sd              =   4.4923622676003E-05
(PID.TID 0000.0001) %MON dynstat_wvel_del2            =   2.3794005568632E-07
(PID.TID 0000.0001) %MON dynstat_theta_max            =   1.2000000000000E+00
(PID.TID 0000.0001) %MON dynstat_theta_min            =  -1.0000000000000E+00
(PID.TID 0000.0001) %MON dynstat_theta_mean           =   5.6911224278901E-01
(PID.TID 0000.0001) %MON dynstat_theta_sd             =   8.6858830631449E-01
(PID.TID 0000.0001) %MON dynstat_theta_del2           =   1.8352269062010E-06
(PID.TID 0000.0001) %MON dynstat_salt_max             =   3.4700000000000E+01
(PID.TID 0000.0001) %MON dynstat_salt_min             =   3.4000000000000E+01
(PID.TID 0000.0001) %MON dynstat_salt_mean            =   3.4499259047926E+01
(PID.TID 0000.0001) %MON dynstat_salt_sd              =   2.7636799517309E-01
(PID.TID 0000.0001) %MON dynstat_salt_del2            =   5.8421340341703E-07
(PID.TID 0000.0001) %MON advcfl_uvel_max              =   2.8676907278609E-04
(PID.TID 0000.0001) %MON advcfl_vvel_max              =   3.6116160534068E-04
(PID.TID 0000.0001) %MON advcfl_wvel_max              =   1.3510848134090E-03
(PID.TID 0000.0001) %MON advcfl_W_hf_max              =   1.3510848134090E-03
(PID.TID 0000.0001) %MON pe_b_mean                    =  -8.3176892125902E-01
(PID.TID 0000.0001) %MON ke_max                       =   5.6777328418358E-06
(PID.TID 0000.0001) %MON ke_mean                      =   1.2396844283404E-08
(PID.TID 0000.0001) %MON ke_vol                       =   4.2725465672768E+12
(PID.TID 0000.0001) // =======================================================
(PID.TID 0000.0001) // End MONITOR dynamic field statistics
(PID.TID 0000.0001) // =======================================================
(PID.TID 0000.0001) // =======================================================
(PID.TID 0000.0001) // Begin OBCS MONITOR field statistics
(PID.TID 0000.0001) // =======================================================
(PID.TID 0000.0001) %MON obc_N_vVel_max               =   1.1936830379565E-05
(PID.TID 0000.0001) %MON obc_N_vVel_min               =   1.1936830379565E-05
(PID.TID 0000.0001) %MON obc_N_vVel_mean              =   1.1936830379565E-05
(PID.TID 0000.0001) %MON obc_N_vVel_sd                =  -5.5059209523061E-24
(PID.TID 0000.0001) %MON obc_N_vVel_Int               =   7.8783080505131E+02
(PID.TID 0000.0001) // =======================================================
(PID.TID 0000.0001) // End OBCS MONITOR field statistics
(PID.TID 0000.0001) // =======================================================
 cg2d: Sum(rhs),rhsMax =   4.52124939466136E+00  2.99868006671436E+02
(PID.TID 0000.0001)      cg2d_init_res =   8.80021924052188E-06
(PID.TID 0000.0001)      cg2d_iters(min,last) =      -1      73
(PID.TID 0000.0001)      cg2d_last_res =   8.98246179355949E-12
(PID.TID 0000.0001) // =======================================================
(PID.TID 0000.0001) // Begin MONITOR dynamic field statistics
(PID.TID 0000.0001) // =======================================================
(PID.TID 0000.0001) %MON time_tsnumber                =                   179
(PID.TID 0000.0001) %MON time_secondsf                =   1.7900000000000E+04
(PID.TID 0000.0001) %MON dynstat_eta_max              =   5.7955857056625E+00
(PID.TID 0000.0001) %MON dynstat_eta_min              =  -1.4197695144993E+01
(PID.TID 0000.0001) %MON dynstat_eta_mean             =  -2.5107000808177E+00
(PID.TID 0000.0001) %MON dynstat_eta_sd               =   4.9522897696580E+00
(PID.TID 0000.0001) %MON dynstat_eta_del2             =   2.0714012024013E-01
(PID.TID 0000.0001) %MON dynstat_uvel_max             =   2.6822468936913E-03
(PID.TID 0000.0001) %MON dynstat_uvel_min             =  -2.8744053878640E-03
(PID.TID 0000.0001) %MON dynstat_uvel_mean            =  -7.0180877836956E-08
(PID.TID 0000.0001) %MON dynstat_uvel_sd              =   8.2697946735051E-05
(PID.TID 0000.0001) %MON dynstat_uvel_del2            =   3.9176753609984E-07
(PID.TID 0000.0001) %MON dynstat_vvel_max             =   3.6238104590609E-03
(PID.TID 0000.0001) %MON dynstat_vvel_min             =  -2.9429545926760E-03
(PID.TID 0000.0001) %MON dynstat_vvel_mean            =   9.8302463271351E-06
(PID.TID 0000.0001) %MON dynstat_vvel_sd              =   1.3424001046687E-04
(PID.TID 0000.0001) %MON dynstat_vvel_del2            =   6.0521822094689E-07
(PID.TID 0000.0001) %MON dynstat_wvel_max             =   2.5623282343232E-04
(PID.TID 0000.0001) %MON dynstat_wvel_min             =  -2.1459807389895E-04
(PID.TID 0000.0001) %MON dynstat_wvel_mean            =  -7.8395462426689E-09
(PID.TID 0000.0001) %MON dynstat_wvel_sd              =   4.4888710061737E-05
(PID.TID 0000.0001) %MON dynstat_wvel_del2            =   2.3815396852469E-07
(PID.TID 0000.0001) %MON dynstat_theta_max            =   1.2000000000000E+00
(PID.TID 0000.0001) %MON dynstat_theta_min            =  -1.0000000000000E+00
(PID.TID 0000.0001) %MON dynstat_theta_mean           =   5.6911198428158E-01
(PID.TID 0000.0001) %MON dynstat_theta_sd             =   8.6858817253656E-01
(PID.TID 0000.0001) %MON dynstat_theta_del2           =   1.8261145965552E-06
(PID.TID 0000.0001) %MON dynstat_salt_max             =   3.4700000000000E+01
(PID.TID 0000.0001) %MON dynstat_salt_min             =   3.4000000000000E+01
(PID.TID 0000.0001) %MON dynstat_salt_mean            =   3.4499258944584E+01
(PID.TID 0000.0001) %MON dynstat_salt_sd              =   2.7636794692758E-01
(PID.TID 0000.0001) %MON dynstat_salt_del2            =   5.8139246981168E-07
(PID.TID 0000.0001) %MON advcfl_uvel_max              =   2.8744053878640E-04
(PID.TID 0000.0001) %MON advcfl_vvel_max              =   3.6238104590609E-04
(PID.TID 0000.0001) %MON advcfl_wvel_max              =   1.2811641171616E-03
(PID.TID 0000.0001) %MON advcfl_W_hf_max              =   1.2811641171616E-03
(PID.TID 0000.0001) %MON pe_b_mean                    =  -8.3177168147195E-01
(PID.TID 0000.0001) %MON ke_max                       =   5.7015150424486E-06
(PID.TID 0000.0001) %MON ke_mean                      =   1.2408969275298E-08
(PID.TID 0000.0001) %MON ke_vol                       =   4.2725465015322E+12
(PID.TID 0000.0001) // =======================================================
(PID.TID 0000.0001) // End MONITOR dynamic field statistics
(PID.TID 0000.0001) // =======================================================
(PID.TID 0000.0001) // =======================================================
(PID.TID 0000.0001) // Begin OBCS MONITOR field statistics
(PID.TID 0000.0001) // =======================================================
(PID.TID 0000.0001) %MON obc_N_vVel_max               =   1.1068385443266E-05
(PID.TID 0000.0001) %MON obc_N_vVel_min               =   1.1068385443266E-05
(PID.TID 0000.0001) %MON obc_N_vVel_mean              =   1.1068385443266E-05
(PID.TID 0000.0001) %MON obc_N_vVel_sd                =  -8.7629446142336E-24
(PID.TID 0000.0001) %MON obc_N_vVel_Int               =   7.3051343925558E+02
(PID.TID 0000.0001) // =======================================================
(PID.TID 0000.0001) // End OBCS MONITOR field statistics
(PID.TID 0000.0001) // =======================================================
 cg2d: Sum(rhs),rhsMax =   4.52126488729846E+00  2.99868090829536E+02
(PID.TID 0000.0001)      cg2d_init_res =   8.77222209915092E-06
(PID.TID 0000.0001)      cg2d_iters(min,last) =      -1      73
(PID.TID 0000.0001)      cg2d_last_res =   9.17587976127080E-12
(PID.TID 0000.0001) // =======================================================
(PID.TID 0000.0001) // Begin MONITOR dynamic field statistics
(PID.TID 0000.0001) // =======================================================
(PID.TID 0000.0001) %MON time_tsnumber                =                   180
(PID.TID 0000.0001) %MON time_secondsf                =   1.8000000000000E+04
(PID.TID 0000.0001) %MON dynstat_eta_max              =   5.7955684241981E+00
(PID.TID 0000.0001) %MON dynstat_eta_min              =  -1.4197724232355E+01
(PID.TID 0000.0001) %MON dynstat_eta_mean             =  -2.5107093886830E+00
(PID.TID 0000.0001) %MON dynstat_eta_sd               =   4.9522922800821E+00
(PID.TID 0000.0001) %MON dynstat_eta_del2             =   2.0714012214913E-01
(PID.TID 0000.0001) %MON dynstat_uvel_max             =   2.6848619063387E-03
(PID.TID 0000.0001) %MON dynstat_uvel_min             =  -2.8809740636824E-03
(PID.TID 0000.0001) %MON dynstat_uvel_mean            =  -8.0312217273698E-08
(PID.TID 0000.0001) %MON dynstat_uvel_sd              =   8.2863323633877E-05
(PID.TID 0000.0001) %MON dynstat_uvel_del2            =   3.9124467181790E-07
(PID.TID 0000.0001) %MON dynstat_vvel_max             =   3.6361067779360E-03
(PID.TID 0000.0001) %MON dynstat_vvel_min             =  -2.9518849233092E-03
(PID.TID 0000.0001) %MON dynstat_vvel_mean            =   9.1553145354297E-06
(PID.TID 0000.0001) %MON dynstat_vvel_sd              =   1.3428644658911E-04
(PID.TID 0000.0001) %MON dynstat_vvel_del2            =   6.0469746713792E-07
(PID.TID 0000.0001) %MON dynstat_wvel_max             =   2.5852861416658E-04
(PID.TID 0000.0001) %MON dynstat_wvel_min             =  -2.3181652215433E-04
(PID.TID 0000.0001) %MON dynstat_wvel_mean            =  -7.1744818565818E-09
(PID.TID 0000.0001) %MON dynstat_wvel_sd              =   4.4837253102996E-05
(PID.TID 0000.0001) %MON dynstat_wvel_del2            =   2.3809692286019E-07
(PID.TID 0000.0001) %MON dynstat_theta_max            =   1.2000000000000E+00
(PID.TID 0000.0001) %MON dynstat_theta_min            =  -1.0000000000000E+00
(PID.TID 0000.0001) %MON dynstat_theta_mean           =   5.6911172546928E-01
(PID.TID 0000.0001) %MON dynstat_theta_sd             =   8.6858803885248E-01
(PID.TID 0000.0001) %MON dynstat_theta_del2           =   1.8173498553622E-06
(PID.TID 0000.0001) %MON dynstat_salt_max             =   3.4700000000000E+01
(PID.TID 0000.0001) %MON dynstat_salt_min             =   3.4000000000000E+01
(PID.TID 0000.0001) %MON dynstat_salt_mean            =   3.4499258841144E+01
(PID.TID 0000.0001) %MON dynstat_salt_sd              =   2.7636789871055E-01
(PID.TID 0000.0001) %MON dynstat_salt_del2            =   5.7868424828401E-07
(PID.TID 0000.0001) %MON advcfl_uvel_max              =   2.8809740636824E-04
(PID.TID 0000.0001) %MON advcfl_vvel_max              =   3.6361067779360E-04
(PID.TID 0000.0001) %MON advcfl_wvel_max              =   1.2926430708329E-03
(PID.TID 0000.0001) %MON advcfl_W_hf_max              =   1.2926430708329E-03
(PID.TID 0000.0001) %MON pe_b_mean                    =  -8.3177428275530E-01
(PID.TID 0000.0001) %MON ke_max                       =   5.7250608416555E-06
(PID.TID 0000.0001) %MON ke_mean                      =   1.2422275704481E-08
(PID.TID 0000.0001) %MON ke_vol                       =   4.2725464415199E+12
(PID.TID 0000.0001) // =======================================================
(PID.TID 0000.0001) // End MONITOR dynamic field statistics
(PID.TID 0000.0001) // =======================================================
(PID.TID 0000.0001) // =======================================================
(PID.TID 0000.0001) // Begin OBCS MONITOR field statistics
(PID.TID 0000.0001) // =======================================================
(PID.TID 0000.0001) %MON obc_N_vVel_max               =   1.0352791235228E-05
(PID.TID 0000.0001) %MON obc_N_vVel_min               =   1.0352791235228E-05
(PID.TID 0000.0001) %MON obc_N_vVel_mean              =   1.0352791235228E-05
(PID.TID 0000.0001) %MON obc_N_vVel_sd                =  -8.7241705230202E-24
(PID.TID 0000.0001) %MON obc_N_vVel_Int               =   6.8328422152505E+02
(PID.TID 0000.0001) // =======================================================
(PID.TID 0000.0001) // End OBCS MONITOR field statistics
(PID.TID 0000.0001) // =======================================================
 cg2d: Sum(rhs),rhsMax =   4.52127927954922E+00  2.99868174440803E+02
(PID.TID 0000.0001)      cg2d_init_res =   8.73602949430693E-06
(PID.TID 0000.0001)      cg2d_iters(min,last) =      -1      73
(PID.TID 0000.0001)      cg2d_last_res =   9.62376040150097E-12
(PID.TID 0000.0001) // =======================================================
(PID.TID 0000.0001) // Begin MONITOR dynamic field statistics
(PID.TID 0000.0001) // =======================================================
(PID.TID 0000.0001) %MON time_tsnumber                =                   181
(PID.TID 0000.0001) %MON time_secondsf                =   1.8100000000000E+04
(PID.TID 0000.0001) %MON dynstat_eta_max              =   5.7955518389082E+00
(PID.TID 0000.0001) %MON dynstat_eta_min              =  -1.4197752669016E+01
(PID.TID 0000.0001) %MON dynstat_eta_mean             =  -2.5107180809175E+00
(PID.TID 0000.0001) %MON dynstat_eta_sd               =   4.9522947405560E+00
(PID.TID 0000.0001) %MON dynstat_eta_del2             =   2.0714012404099E-01
(PID.TID 0000.0001) %MON dynstat_uvel_max             =   2.6872989345819E-03
(PID.TID 0000.0001) %MON dynstat_uvel_min             =  -2.8873972489443E-03
(PID.TID 0000.0001) %MON dynstat_uvel_mean            =  -9.0663667244528E-08
(PID.TID 0000.0001) %MON dynstat_uvel_sd              =   8.3028851710549E-05
(PID.TID 0000.0001) %MON dynstat_uvel_del2            =   3.9071324300373E-07
(PID.TID 0000.0001) %MON dynstat_vvel_max             =   3.6485077694106E-03
(PID.TID 0000.0001) %MON dynstat_vvel_min             =  -2.9604174588380E-03
(PID.TID 0000.0001) %MON dynstat_vvel_mean            =   8.6769075289053E-06
(PID.TID 0000.0001) %MON dynstat_vvel_sd              =   1.3431831114290E-04
(PID.TID 0000.0001) %MON dynstat_vvel_del2            =   6.0384325545042E-07
(PID.TID 0000.0001) %MON dynstat_wvel_max             =   2.5816456602718E-04
(PID.TID 0000.0001) %MON dynstat_wvel_min             =  -2.4833066987085E-04
(PID.TID 0000.0001) %MON dynstat_wvel_mean            =  -6.1918079587863E-09
(PID.TID 0000.0001) %MON dynstat_wvel_sd              =   4.4763012535705E-05
(PID.TID 0000.0001) %MON dynstat_wvel_del2            =   2.3769520979320E-07
(PID.TID 0000.0001) %MON dynstat_theta_max            =   1.2000000000000E+00
(PID.TID 0000.0001) %MON dynstat_theta_min            =  -1.0000000000000E+00
(PID.TID 0000.0001) %MON dynstat_theta_mean           =   5.6911146642589E-01
(PID.TID 0000.0001) %MON dynstat_theta_sd             =   8.6858790530379E-01
(PID.TID 0000.0001) %MON dynstat_theta_del2           =   1.8089826756356E-06
(PID.TID 0000.0001) %MON dynstat_salt_max             =   3.4700000000000E+01
(PID.TID 0000.0001) %MON dynstat_salt_min             =   3.4000000000000E+01
(PID.TID 0000.0001) %MON dynstat_salt_mean            =   3.4499258737629E+01
(PID.TID 0000.0001) %MON dynstat_salt_sd              =   2.7636785053524E-01
(PID.TID 0000.0001) %MON dynstat_salt_del2            =   5.7610457029170E-07
(PID.TID 0000.0001) %MON advcfl_uvel_max              =   2.8873972489443E-04
(PID.TID 0000.0001) %MON advcfl_vvel_max              =   3.6485077694106E-04
(PID.TID 0000.0001) %MON advcfl_wvel_max              =   1.2908228301359E-03
(PID.TID 0000.0001) %MON advcfl_W_hf_max              =   1.2908228301359E-03
(PID.TID 0000.0001) %MON pe_b_mean                    =  -8.3177677461572E-01
(PID.TID 0000.0001) %MON ke_max                       =   5.7483794367275E-06
(PID.TID 0000.0001) %MON ke_mean                      =   1.2435791532569E-08
(PID.TID 0000.0001) %MON ke_vol                       =   4.2725463862312E+12
(PID.TID 0000.0001) // =======================================================
(PID.TID 0000.0001) // End MONITOR dynamic field statistics
(PID.TID 0000.0001) // =======================================================
(PID.TID 0000.0001) // =======================================================
(PID.TID 0000.0001) // Begin OBCS MONITOR field statistics
(PID.TID 0000.0001) // =======================================================
(PID.TID 0000.0001) %MON obc_N_vVel_max               =   9.7988263153863E-06
(PID.TID 0000.0001) %MON obc_N_vVel_min               =   9.7988263153859E-06
(PID.TID 0000.0001) %MON obc_N_vVel_mean              =   9.7988263153863E-06
(PID.TID 0000.0001) %MON obc_N_vVel_sd                =  -7.7806676368269E-24
(PID.TID 0000.0001) %MON obc_N_vVel_Int               =   6.4672253681550E+02
(PID.TID 0000.0001) // =======================================================
(PID.TID 0000.0001) // End OBCS MONITOR field statistics
(PID.TID 0000.0001) // =======================================================
 cg2d: Sum(rhs),rhsMax =   4.52129290406612E+00  2.99868257414129E+02
(PID.TID 0000.0001)      cg2d_init_res =   8.69105090171173E-06
(PID.TID 0000.0001)      cg2d_iters(min,last) =      -1      74
(PID.TID 0000.0001)      cg2d_last_res =   7.77071688517904E-12
(PID.TID 0000.0001) // =======================================================
(PID.TID 0000.0001) // Begin MONITOR dynamic field statistics
(PID.TID 0000.0001) // =======================================================
(PID.TID 0000.0001) %MON time_tsnumber                =                   182
(PID.TID 0000.0001) %MON time_secondsf                =   1.8200000000000E+04
(PID.TID 0000.0001) %MON dynstat_eta_max              =   5.7955356711311E+00
(PID.TID 0000.0001) %MON dynstat_eta_min              =  -1.4197780621642E+01
(PID.TID 0000.0001) %MON dynstat_eta_mean             =  -2.5107263414837E+00
(PID.TID 0000.0001) %MON dynstat_eta_sd               =   4.9522972115108E+00
(PID.TID 0000.0001) %MON dynstat_eta_del2             =   2.0714012591591E-01
(PID.TID 0000.0001) %MON dynstat_uvel_max             =   2.6895592627518E-03
(PID.TID 0000.0001) %MON dynstat_uvel_min             =  -2.8936754653976E-03
(PID.TID 0000.0001) %MON dynstat_uvel_mean            =  -1.0096125226432E-07
(PID.TID 0000.0001) %MON dynstat_uvel_sd              =   8.3194683247787E-05
(PID.TID 0000.0001) %MON dynstat_uvel_del2            =   3.9017373545926E-07
(PID.TID 0000.0001) %MON dynstat_vvel_max             =   3.6610092749036E-03
(PID.TID 0000.0001) %MON dynstat_vvel_min             =  -2.9685572514015E-03
(PID.TID 0000.0001) %MON dynstat_vvel_mean            =   8.3946567676210E-06
(PID.TID 0000.0001) %MON dynstat_vvel_sd              =   1.3433312380923E-04
(PID.TID 0000.0001) %MON dynstat_vvel_del2            =   6.0263018845824E-07
(PID.TID 0000.0001) %MON dynstat_wvel_max             =   2.5584439701024E-04
(PID.TID 0000.0001) %MON dynstat_wvel_min             =  -2.5995226932547E-04
(PID.TID 0000.0001) %MON dynstat_wvel_mean            =  -4.9384682860987E-09
(PID.TID 0000.0001) %MON dynstat_wvel_sd              =   4.4662959492265E-05
(PID.TID 0000.0001) %MON dynstat_wvel_del2            =   2.3692170120517E-07
(PID.TID 0000.0001) %MON dynstat_theta_max            =   1.2000000000000E+00
(PID.TID 0000.0001) %MON dynstat_theta_min            =  -1.0000000000000E+00
(PID.TID 0000.0001) %MON dynstat_theta_mean           =   5.6911120722689E-01
(PID.TID 0000.0001) %MON dynstat_theta_sd             =   8.6858777193348E-01
(PID.TID 0000.0001) %MON dynstat_theta_del2           =   1.8010219156321E-06
(PID.TID 0000.0001) %MON dynstat_salt_max             =   3.4700000000000E+01
(PID.TID 0000.0001) %MON dynstat_salt_min             =   3.4000000000000E+01
(PID.TID 0000.0001) %MON dynstat_salt_mean            =   3.4499258634063E+01
(PID.TID 0000.0001) %MON dynstat_salt_sd              =   2.7636780241507E-01
(PID.TID 0000.0001) %MON dynstat_salt_del2            =   5.7365612795916E-07
(PID.TID 0000.0001) %MON advcfl_uvel_max              =   2.8936754653976E-04
(PID.TID 0000.0001) %MON advcfl_vvel_max              =   3.6610092749036E-04
(PID.TID 0000.0001) %MON advcfl_wvel_max              =   1.2997613466273E-03
(PID.TID 0000.0001) %MON advcfl_W_hf_max              =   1.2997613466273E-03
(PID.TID 0000.0001) %MON pe_b_mean                    =  -8.3177920617614E-01
(PID.TID 0000.0001) %MON ke_max                       =   5.7714722023089E-06
(PID.TID 0000.0001) %MON ke_mean                      =   1.2448911338199E-08
(PID.TID 0000.0001) %MON ke_vol                       =   4.2725463345994E+12
(PID.TID 0000.0001) // =======================================================
(PID.TID 0000.0001) // End MONITOR dynamic field statistics
(PID.TID 0000.0001) // =======================================================
(PID.TID 0000.0001) // =======================================================
(PID.TID 0000.0001) // Begin OBCS MONITOR field statistics
(PID.TID 0000.0001) // =======================================================
(PID.TID 0000.0001) %MON obc_N_vVel_max               =   9.4104281010800E-06
(PID.TID 0000.0001) %MON obc_N_vVel_min               =   9.4104281010800E-06
(PID.TID 0000.0001) %MON obc_N_vVel_mean              =   9.4104281010800E-06
(PID.TID 0000.0001) %MON obc_N_vVel_sd                =  -1.2536956159007E-24
(PID.TID 0000.0001) %MON obc_N_vVel_Int               =   6.2108825467128E+02
(PID.TID 0000.0001) // =======================================================
(PID.TID 0000.0001) // End OBCS MONITOR field statistics
(PID.TID 0000.0001) // =======================================================
 cg2d: Sum(rhs),rhsMax =   4.52130609184277E+00  2.99868339676420E+02
(PID.TID 0000.0001)      cg2d_init_res =   8.63775401923809E-06
(PID.TID 0000.0001)      cg2d_iters(min,last) =      -1      74
(PID.TID 0000.0001)      cg2d_last_res =   8.65765349943702E-12
(PID.TID 0000.0001) // =======================================================
(PID.TID 0000.0001) // Begin MONITOR dynamic field statistics
(PID.TID 0000.0001) // =======================================================
(PID.TID 0000.0001) %MON time_tsnumber                =                   183
(PID.TID 0000.0001) %MON time_secondsf                =   1.8300000000000E+04
(PID.TID 0000.0001) %MON dynstat_eta_max              =   5.7955196496083E+00
(PID.TID 0000.0001) %MON dynstat_eta_min              =  -1.4197808259021E+01
(PID.TID 0000.0001) %MON dynstat_eta_mean             =  -2.5107343535737E+00
(PID.TID 0000.0001) %MON dynstat_eta_sd               =   4.9522997491012E+00
(PID.TID 0000.0001) %MON dynstat_eta_del2             =   2.0714012777547E-01
(PID.TID 0000.0001) %MON dynstat_uvel_max             =   2.6916441274452E-03
(PID.TID 0000.0001) %MON dynstat_uvel_min             =  -2.8998092505965E-03
(PID.TID 0000.0001) %MON dynstat_uvel_mean            =  -1.1094946422301E-07
(PID.TID 0000.0001) %MON dynstat_uvel_sd              =   8.3360976222161E-05
(PID.TID 0000.0001) %MON dynstat_uvel_del2            =   3.8962660242505E-07
(PID.TID 0000.0001) %MON dynstat_vvel_max             =   3.6736007319362E-03
(PID.TID 0000.0001) %MON dynstat_vvel_min             =  -2.9763156587617E-03
(PID.TID 0000.0001) %MON dynstat_vvel_mean            =   8.3030479766904E-06
(PID.TID 0000.0001) %MON dynstat_vvel_sd              =   1.3433093455853E-04
(PID.TID 0000.0001) %MON dynstat_vvel_del2            =   6.0107829683808E-07
(PID.TID 0000.0001) %MON dynstat_wvel_max             =   2.5874078662914E-04
(PID.TID 0000.0001) %MON dynstat_wvel_min             =  -2.6752306264811E-04
(PID.TID 0000.0001) %MON dynstat_wvel_mean            =  -3.4653739053245E-09
(PID.TID 0000.0001) %MON dynstat_wvel_sd              =   4.4537550982806E-05
(PID.TID 0000.0001) %MON dynstat_wvel_del2            =   2.3579752344981E-07
(PID.TID 0000.0001) %MON dynstat_theta_max            =   1.2000000000000E+00
(PID.TID 0000.0001) %MON dynstat_theta_min            =  -1.0000000000000E+00
(PID.TID 0000.0001) %MON dynstat_theta_mean           =   5.6911094794573E-01
(PID.TID 0000.0001) %MON dynstat_theta_sd             =   8.6858763876945E-01
(PID.TID 0000.0001) %MON dynstat_theta_del2           =   1.7934350333707E-06
(PID.TID 0000.0001) %MON dynstat_salt_max             =   3.4700000000000E+01
(PID.TID 0000.0001) %MON dynstat_salt_min             =   3.4000000000000E+01
(PID.TID 0000.0001) %MON dynstat_salt_mean            =   3.4499258530470E+01
(PID.TID 0000.0001) %MON dynstat_salt_sd              =   2.7636775435921E-01
(PID.TID 0000.0001) %MON dynstat_salt_del2            =   5.7132850769030E-07
(PID.TID 0000.0001) %MON advcfl_uvel_max              =   2.8998092505965E-04
(PID.TID 0000.0001) %MON advcfl_vvel_max              =   3.6736007319362E-04
(PID.TID 0000.0001) %MON advcfl_wvel_max              =   1.3376153132405E-03
(PID.TID 0000.0001) %MON advcfl_W_hf_max              =   1.3376153132405E-03
(PID.TID 0000.0001) %MON pe_b_mean                    =  -8.3178162490455E-01
(PID.TID 0000.0001) %MON ke_max                       =   5.7943330045131E-06
(PID.TID 0000.0001) %MON ke_mean                      =   1.2461443763705E-08
(PID.TID 0000.0001) %MON ke_vol                       =   4.2725462855316E+12
(PID.TID 0000.0001) // =======================================================
(PID.TID 0000.0001) // End MONITOR dynamic field statistics
(PID.TID 0000.0001) // =======================================================
(PID.TID 0000.0001) // =======================================================
(PID.TID 0000.0001) // Begin OBCS MONITOR field statistics
(PID.TID 0000.0001) // =======================================================
(PID.TID 0000.0001) %MON obc_N_vVel_max               =   9.1869094640856E-06
(PID.TID 0000.0001) %MON obc_N_vVel_min               =   9.1869094640856E-06
(PID.TID 0000.0001) %MON obc_N_vVel_mean              =   9.1869094640856E-06
(PID.TID 0000.0001) %MON obc_N_vVel_sd                =   1.6317130864999E-12
(PID.TID 0000.0001) %MON obc_N_vVel_Int               =   6.0633602462965E+02
(PID.TID 0000.0001) // =======================================================
(PID.TID 0000.0001) // End OBCS MONITOR field statistics
(PID.TID 0000.0001) // =======================================================
 cg2d: Sum(rhs),rhsMax =   4.52131916362033E+00  2.99868421173910E+02
(PID.TID 0000.0001)      cg2d_init_res =   8.57787278291934E-06
(PID.TID 0000.0001)      cg2d_iters(min,last) =      -1      74
(PID.TID 0000.0001)      cg2d_last_res =   9.61438135531664E-12
(PID.TID 0000.0001) // =======================================================
(PID.TID 0000.0001) // Begin MONITOR dynamic field statistics
(PID.TID 0000.0001) // =======================================================
(PID.TID 0000.0001) %MON time_tsnumber                =                   184
(PID.TID 0000.0001) %MON time_secondsf                =   1.8400000000000E+04
(PID.TID 0000.0001) %MON dynstat_eta_max              =   5.7955035173734E+00
(PID.TID 0000.0001) %MON dynstat_eta_min              =  -1.4197835747014E+01
(PID.TID 0000.0001) %MON dynstat_eta_mean             =  -2.5107422948485E+00
(PID.TID 0000.0001) %MON dynstat_eta_sd               =   4.9523024040394E+00
(PID.TID 0000.0001) %MON dynstat_eta_del2             =   2.0714012962073E-01
(PID.TID 0000.0001) %MON dynstat_uvel_max             =   2.6935547041873E-03
(PID.TID 0000.0001) %MON dynstat_uvel_min             =  -2.9057991779347E-03
(PID.TID 0000.0001) %MON dynstat_uvel_mean            =  -1.2039640447340E-07
(PID.TID 0000.0001) %MON dynstat_uvel_sd              =   8.3527890891595E-05
(PID.TID 0000.0001) %MON dynstat_uvel_del2            =   3.8907226386711E-07
(PID.TID 0000.0001) %MON dynstat_vvel_max             =   3.6862660154870E-03
(PID.TID 0000.0001) %MON dynstat_vvel_min             =  -2.9837095784915E-03
(PID.TID 0000.0001) %MON dynstat_vvel_mean            =   8.3919106469890E-06
(PID.TID 0000.0001) %MON dynstat_vvel_sd              =   1.3431422248196E-04
(PID.TID 0000.0001) %MON dynstat_vvel_del2            =   5.9924911905983E-07
(PID.TID 0000.0001) %MON dynstat_wvel_max             =   2.6317183238100E-04
(PID.TID 0000.0001) %MON dynstat_wvel_min             =  -2.7939010270064E-04
(PID.TID 0000.0001) %MON dynstat_wvel_mean            =  -1.8259691960346E-09
(PID.TID 0000.0001) %MON dynstat_wvel_sd              =   4.4390561661437E-05
(PID.TID 0000.0001) %MON dynstat_wvel_del2            =   2.3438817195091E-07
(PID.TID 0000.0001) %MON dynstat_theta_max            =   1.2000000000000E+00
(PID.TID 0000.0001) %MON dynstat_theta_min            =  -1.0000000000000E+00
(PID.TID 0000.0001) %MON dynstat_theta_mean           =   5.6911068865289E-01
(PID.TID 0000.0001) %MON dynstat_theta_sd             =   8.6858750558379E-01
(PID.TID 0000.0001) %MON dynstat_theta_del2           =   1.7861515661791E-06
(PID.TID 0000.0001) %MON dynstat_salt_max             =   3.4700000000000E+01
(PID.TID 0000.0001) %MON dynstat_salt_min             =   3.4000000000000E+01
(PID.TID 0000.0001) %MON dynstat_salt_mean            =   3.4499258426872E+01
(PID.TID 0000.0001) %MON dynstat_salt_sd              =   2.7636770629503E-01
(PID.TID 0000.0001) %MON dynstat_salt_del2            =   5.6909919026393E-07
(PID.TID 0000.0001) %MON advcfl_uvel_max              =   2.9057991779347E-04
(PID.TID 0000.0001) %MON advcfl_vvel_max              =   3.6862660154870E-04
(PID.TID 0000.0001) %MON advcfl_wvel_max              =   1.3969505135032E-03
(PID.TID 0000.0001) %MON advcfl_W_hf_max              =   1.3969505135032E-03
(PID.TID 0000.0001) %MON pe_b_mean                    =  -8.3178407547296E-01
(PID.TID 0000.0001) %MON ke_max                       =   5.8169489520642E-06
(PID.TID 0000.0001) %MON ke_mean                      =   1.2473598597637E-08
(PID.TID 0000.0001) %MON ke_vol                       =   4.2725462379398E+12
(PID.TID 0000.0001) // =======================================================
(PID.TID 0000.0001) // End MONITOR dynamic field statistics
(PID.TID 0000.0001) // =======================================================
(PID.TID 0000.0001) // =======================================================
(PID.TID 0000.0001) // Begin OBCS MONITOR field statistics
(PID.TID 0000.0001) // =======================================================
(PID.TID 0000.0001) %MON obc_N_vVel_max               =   9.1232908172315E-06
(PID.TID 0000.0001) %MON obc_N_vVel_min               =   9.1232908172313E-06
(PID.TID 0000.0001) %MON obc_N_vVel_mean              =   9.1232908172315E-06
(PID.TID 0000.0001) %MON obc_N_vVel_sd                =  -3.9937313949826E-24
(PID.TID 0000.0001) %MON obc_N_vVel_Int               =   6.0213719393728E+02
(PID.TID 0000.0001) // =======================================================
(PID.TID 0000.0001) // End OBCS MONITOR field statistics
(PID.TID 0000.0001) // =======================================================
 cg2d: Sum(rhs),rhsMax =   4.52133242211570E+00  2.99868501871750E+02
(PID.TID 0000.0001)      cg2d_init_res =   8.51410449967839E-06
(PID.TID 0000.0001)      cg2d_iters(min,last) =      -1      75
(PID.TID 0000.0001)      cg2d_last_res =   8.83587370640129E-12
(PID.TID 0000.0001) // =======================================================
(PID.TID 0000.0001) // Begin MONITOR dynamic field statistics
(PID.TID 0000.0001) // =======================================================
(PID.TID 0000.0001) %MON time_tsnumber                =                   185
(PID.TID 0000.0001) %MON time_secondsf                =   1.8500000000000E+04
(PID.TID 0000.0001) %MON dynstat_eta_max              =   5.7954870379243E+00
(PID.TID 0000.0001) %MON dynstat_eta_min              =  -1.4197863244988E+01
(PID.TID 0000.0001) %MON dynstat_eta_mean             =  -2.5107503331185E+00
(PID.TID 0000.0001) %MON dynstat_eta_sd               =   4.9523052205941E+00
(PID.TID 0000.0001) %MON dynstat_eta_del2             =   2.0714013145293E-01
(PID.TID 0000.0001) %MON dynstat_uvel_max             =   2.6952921254519E-03
(PID.TID 0000.0001) %MON dynstat_uvel_min             =  -2.9116458466873E-03
(PID.TID 0000.0001) %MON dynstat_uvel_mean            =  -1.2909740958618E-07
(PID.TID 0000.0001) %MON dynstat_uvel_sd              =   8.3695586374092E-05
(PID.TID 0000.0001) %MON dynstat_uvel_del2            =   3.8851110407313E-07
(PID.TID 0000.0001) %MON dynstat_vvel_max             =   3.6989841123471E-03
(PID.TID 0000.0001) %MON dynstat_vvel_min             =  -2.9907606948605E-03
(PID.TID 0000.0001) %MON dynstat_vvel_mean            =   8.6469954201533E-06
(PID.TID 0000.0001) %MON dynstat_vvel_sd              =   1.3428747995683E-04
(PID.TID 0000.0001) %MON dynstat_vvel_del2            =   5.9723674754335E-07
(PID.TID 0000.0001) %MON dynstat_wvel_max             =   2.6608966380399E-04
(PID.TID 0000.0001) %MON dynstat_wvel_min             =  -2.8636218402800E-04
(PID.TID 0000.0001) %MON dynstat_wvel_mean            =  -7.4397068131461E-11
(PID.TID 0000.0001) %MON dynstat_wvel_sd              =   4.4228503483246E-05
(PID.TID 0000.0001) %MON dynstat_wvel_del2            =   2.3279457364180E-07
(PID.TID 0000.0001) %MON dynstat_theta_max            =   1.2000000000000E+00
(PID.TID 0000.0001) %MON dynstat_theta_min            =  -1.0000000000000E+00
(PID.TID 0000.0001) %MON dynstat_theta_mean           =   5.6911042941473E-01
(PID.TID 0000.0001) %MON dynstat_theta_sd             =   8.6858737227812E-01
(PID.TID 0000.0001) %MON dynstat_theta_del2           =   1.7790733794748E-06
(PID.TID 0000.0001) %MON dynstat_salt_max             =   3.4700000000000E+01
(PID.TID 0000.0001) %MON dynstat_salt_min             =   3.4000000000000E+01
(PID.TID 0000.0001) %MON dynstat_salt_mean            =   3.4499258323290E+01
(PID.TID 0000.0001) %MON dynstat_salt_sd              =   2.7636765819122E-01
(PID.TID 0000.0001) %MON dynstat_salt_del2            =   5.6693685679977E-07
(PID.TID 0000.0001) %MON advcfl_uvel_max              =   2.9116458466873E-04
(PID.TID 0000.0001) %MON advcfl_vvel_max              =   3.6989841123471E-04
(PID.TID 0000.0001) %MON advcfl_wvel_max              =   1.4318109201400E-03
(PID.TID 0000.0001) %MON advcfl_W_hf_max              =   1.4318109201400E-03
(PID.TID 0000.0001) %MON pe_b_mean                    =  -8.3178659876902E-01
(PID.TID 0000.0001) %MON ke_max                       =   5.8393009132082E-06
(PID.TID 0000.0001) %MON ke_mean                      =   1.2485918762667E-08
(PID.TID 0000.0001) %MON ke_vol                       =   4.2725461907686E+12
(PID.TID 0000.0001) // =======================================================
(PID.TID 0000.0001) // End MONITOR dynamic field statistics
(PID.TID 0000.0001) // =======================================================
(PID.TID 0000.0001) // =======================================================
(PID.TID 0000.0001) // Begin OBCS MONITOR field statistics
(PID.TID 0000.0001) // =======================================================
(PID.TID 0000.0001) %MON obc_N_vVel_max               =   9.2107021666632E-06
(PID.TID 0000.0001) %MON obc_N_vVel_min               =   9.2107021666628E-06
(PID.TID 0000.0001) %MON obc_N_vVel_mean              =   9.2107021666632E-06
(PID.TID 0000.0001) %MON obc_N_vVel_sd                =  -8.3364296108860E-24
(PID.TID 0000.0001) %MON obc_N_vVel_Int               =   6.0790634299977E+02
(PID.TID 0000.0001) // =======================================================
(PID.TID 0000.0001) // End OBCS MONITOR field statistics
(PID.TID 0000.0001) // =======================================================
 cg2d: Sum(rhs),rhsMax =   4.52134614525423E+00  2.99868581753232E+02
(PID.TID 0000.0001)      cg2d_init_res =   8.45004161586314E-06
(PID.TID 0000.0001)      cg2d_iters(min,last) =      -1      75
(PID.TID 0000.0001)      cg2d_last_res =   9.64052217587523E-12
(PID.TID 0000.0001) // =======================================================
(PID.TID 0000.0001) // Begin MONITOR dynamic field statistics
(PID.TID 0000.0001) // =======================================================
(PID.TID 0000.0001) %MON time_tsnumber                =                   186
(PID.TID 0000.0001) %MON time_secondsf                =   1.8600000000000E+04
(PID.TID 0000.0001) %MON dynstat_eta_max              =   5.7954699984557E+00
(PID.TID 0000.0001) %MON dynstat_eta_min              =  -1.4197890900748E+01
(PID.TID 0000.0001) %MON dynstat_eta_mean             =  -2.5107586225793E+00
(PID.TID 0000.0001) %MON dynstat_eta_sd               =   4.9523082358935E+00
(PID.TID 0000.0001) %MON dynstat_eta_del2             =   2.0714013327452E-01
(PID.TID 0000.0001) %MON dynstat_uvel_max             =   2.6968574770336E-03
(PID.TID 0000.0001) %MON dynstat_uvel_min             =  -2.9173498817876E-03
(PID.TID 0000.0001) %MON dynstat_uvel_mean            =  -1.3687669741958E-07
(PID.TID 0000.0001) %MON dynstat_uvel_sd              =   8.3864217510623E-05
(PID.TID 0000.0001) %MON dynstat_uvel_del2            =   3.8794347121456E-07
(PID.TID 0000.0001) %MON dynstat_vvel_max             =   3.7117300980558E-03
(PID.TID 0000.0001) %MON dynstat_vvel_min             =  -2.9974946288238E-03
(PID.TID 0000.0001) %MON dynstat_vvel_mean            =   9.0506226527131E-06
(PID.TID 0000.0001) %MON dynstat_vvel_sd              =   1.3425655343246E-04
(PID.TID 0000.0001) %MON dynstat_vvel_del2            =   5.9515504838525E-07
(PID.TID 0000.0001) %MON dynstat_wvel_max             =   2.7322294722037E-04
(PID.TID 0000.0001) %MON dynstat_wvel_min             =  -2.8764961125787E-04
(PID.TID 0000.0001) %MON dynstat_wvel_mean            =   1.7357649204681E-09
(PID.TID 0000.0001) %MON dynstat_wvel_sd              =   4.4059716475166E-05
(PID.TID 0000.0001) %MON dynstat_wvel_del2            =   2.3113999325569E-07
(PID.TID 0000.0001) %MON dynstat_theta_max            =   1.2000000000000E+00
(PID.TID 0000.0001) %MON dynstat_theta_min            =  -1.0000000000000E+00
(PID.TID 0000.0001) %MON dynstat_theta_mean           =   5.6911017029115E-01
(PID.TID 0000.0001) %MON dynstat_theta_sd             =   8.6858723881697E-01
(PID.TID 0000.0001) %MON dynstat_theta_del2           =   1.7720896925927E-06
(PID.TID 0000.0001) %MON dynstat_salt_max             =   3.4700000000000E+01
(PID.TID 0000.0001) %MON dynstat_salt_min             =   3.4000000000000E+01
(PID.TID 0000.0001) %MON dynstat_salt_mean            =   3.4499258219743E+01
(PID.TID 0000.0001) %MON dynstat_salt_sd              =   2.7636761003687E-01
(PID.TID 0000.0001) %MON dynstat_salt_del2            =   5.6480610022338E-07
(PID.TID 0000.0001) %MON advcfl_uvel_max              =   2.9173498817876E-04
(PID.TID 0000.0001) %MON advcfl_vvel_max              =   3.7117300980558E-04
(PID.TID 0000.0001) %MON advcfl_wvel_max              =   1.4382480562893E-03
(PID.TID 0000.0001) %MON advcfl_W_hf_max              =   1.4382480562893E-03
(PID.TID 0000.0001) %MON pe_b_mean                    =  -8.3178923106807E-01
(PID.TID 0000.0001) %MON ke_max                       =   5.8613644990469E-06
(PID.TID 0000.0001) %MON ke_mean                      =   1.2499170596436E-08
(PID.TID 0000.0001) %MON ke_vol                       =   4.2725461430213E+12
(PID.TID 0000.0001) // =======================================================
(PID.TID 0000.0001) // End MONITOR dynamic field statistics
(PID.TID 0000.0001) // =======================================================
(PID.TID 0000.0001) // =======================================================
(PID.TID 0000.0001) // Begin OBCS MONITOR field statistics
(PID.TID 0000.0001) // =======================================================
(PID.TID 0000.0001) %MON obc_N_vVel_max               =   9.4368915755884E-06
(PID.TID 0000.0001) %MON obc_N_vVel_min               =   9.4368915755883E-06
(PID.TID 0000.0001) %MON obc_N_vVel_mean              =   9.4368915755884E-06
(PID.TID 0000.0001) %MON obc_N_vVel_sd                =   1.5125050021709E-12
(PID.TID 0000.0001) %MON obc_N_vVel_Int               =   6.2283484398884E+02
(PID.TID 0000.0001) // =======================================================
(PID.TID 0000.0001) // End OBCS MONITOR field statistics
(PID.TID 0000.0001) // =======================================================
 cg2d: Sum(rhs),rhsMax =   4.52136058047644E+00  2.99868660819933E+02
(PID.TID 0000.0001)      cg2d_init_res =   8.38920702562985E-06
(PID.TID 0000.0001)      cg2d_iters(min,last) =      -1      77
(PID.TID 0000.0001)      cg2d_last_res =   8.77387093494974E-12
(PID.TID 0000.0001) // =======================================================
(PID.TID 0000.0001) // Begin MONITOR dynamic field statistics
(PID.TID 0000.0001) // =======================================================
(PID.TID 0000.0001) %MON time_tsnumber                =                   187
(PID.TID 0000.0001) %MON time_secondsf                =   1.8700000000000E+04
(PID.TID 0000.0001) %MON dynstat_eta_max              =   5.7954522148956E+00
(PID.TID 0000.0001) %MON dynstat_eta_min              =  -1.4197918849690E+01
(PID.TID 0000.0001) %MON dynstat_eta_mean             =  -2.5107673006509E+00
(PID.TID 0000.0001) %MON dynstat_eta_sd               =   4.9523114793789E+00
(PID.TID 0000.0001) %MON dynstat_eta_del2             =   2.0714013508748E-01
(PID.TID 0000.0001) %MON dynstat_uvel_max             =   2.6982517975789E-03
(PID.TID 0000.0001) %MON dynstat_uvel_min             =  -2.9229119352543E-03
(PID.TID 0000.0001) %MON dynstat_uvel_mean            =  -1.4359317644126E-07
(PID.TID 0000.0001) %MON dynstat_uvel_sd              =   8.4033931708941E-05
(PID.TID 0000.0001) %MON dynstat_uvel_del2            =   3.8736967927374E-07
(PID.TID 0000.0001) %MON dynstat_vvel_max             =   3.7244759873634E-03
(PID.TID 0000.0001) %MON dynstat_vvel_min             =  -3.0039399414088E-03
(PID.TID 0000.0001) %MON dynstat_vvel_mean            =   9.5823772997278E-06
(PID.TID 0000.0001) %MON dynstat_vvel_sd              =   1.3422782958779E-04
(PID.TID 0000.0001) %MON dynstat_vvel_del2            =   5.9312263080236E-07
(PID.TID 0000.0001) %MON dynstat_wvel_max             =   2.7602544596962E-04
(PID.TID 0000.0001) %MON dynstat_wvel_min             =  -2.8324288814836E-04
(PID.TID 0000.0001) %MON dynstat_wvel_mean            =   3.5530588469356E-09
(PID.TID 0000.0001) %MON dynstat_wvel_sd              =   4.3893245353864E-05
(PID.TID 0000.0001) %MON dynstat_wvel_del2            =   2.2955406203540E-07
(PID.TID 0000.0001) %MON dynstat_theta_max            =   1.2000000000000E+00
(PID.TID 0000.0001) %MON dynstat_theta_min            =  -1.0000000000000E+00
(PID.TID 0000.0001) %MON dynstat_theta_mean           =   5.6910991133459E-01
(PID.TID 0000.0001) %MON dynstat_theta_sd             =   8.6858710514623E-01
(PID.TID 0000.0001) %MON dynstat_theta_del2           =   1.7650904106199E-06
(PID.TID 0000.0001) %MON dynstat_salt_max             =   3.4700000000000E+01
(PID.TID 0000.0001) %MON dynstat_salt_min             =   3.4000000000000E+01
(PID.TID 0000.0001) %MON dynstat_salt_mean            =   3.4499258116248E+01
(PID.TID 0000.0001) %MON dynstat_salt_sd              =   2.7636756181443E-01
(PID.TID 0000.0001) %MON dynstat_salt_del2            =   5.6267187104778E-07
(PID.TID 0000.0001) %MON advcfl_uvel_max              =   2.9229119352543E-04
(PID.TID 0000.0001) %MON advcfl_vvel_max              =   3.7244759873634E-04
(PID.TID 0000.0001) %MON advcfl_wvel_max              =   1.4162144407418E-03
(PID.TID 0000.0001) %MON advcfl_W_hf_max              =   1.4162144407418E-03
(PID.TID 0000.0001) %MON pe_b_mean                    =  -8.3179200338633E-01
(PID.TID 0000.0001) %MON ke_max                       =   5.8831108326001E-06
(PID.TID 0000.0001) %MON ke_mean                      =   1.2514208675709E-08
(PID.TID 0000.0001) %MON ke_vol                       =   4.2725460937819E+12
(PID.TID 0000.0001) // =======================================================
(PID.TID 0000.0001) // End MONITOR dynamic field statistics
(PID.TID 0000.0001) // =======================================================
(PID.TID 0000.0001) // =======================================================
(PID.TID 0000.0001) // Begin OBCS MONITOR field statistics
(PID.TID 0000.0001) // =======================================================
(PID.TID 0000.0001) %MON obc_N_vVel_max               =   9.7867621178054E-06
(PID.TID 0000.0001) %MON obc_N_vVel_min               =   9.7867621178051E-06
(PID.TID 0000.0001) %MON obc_N_vVel_mean              =   9.7867621178051E-06
(PID.TID 0000.0001) %MON obc_N_vVel_sd                =   1.9057386696477E-12
(PID.TID 0000.0001) %MON obc_N_vVel_Int               =   6.4592629977514E+02
(PID.TID 0000.0001) // =======================================================
(PID.TID 0000.0001) // End OBCS MONITOR field statistics
(PID.TID 0000.0001) // =======================================================
 cg2d: Sum(rhs),rhsMax =   4.52137594029281E+00  2.99868739088887E+02
(PID.TID 0000.0001)      cg2d_init_res =   8.33546890834967E-06
(PID.TID 0000.0001)      cg2d_iters(min,last) =      -1      77
(PID.TID 0000.0001)      cg2d_last_res =   8.94930842210252E-12
(PID.TID 0000.0001) // =======================================================
(PID.TID 0000.0001) // Begin MONITOR dynamic field statistics
(PID.TID 0000.0001) // =======================================================
(PID.TID 0000.0001) %MON time_tsnumber                =                   188
(PID.TID 0000.0001) %MON time_secondsf                =   1.8800000000000E+04
(PID.TID 0000.0001) %MON dynstat_eta_max              =   5.7954335383601E+00
(PID.TID 0000.0001) %MON dynstat_eta_min              =  -1.4197947209323E+01
(PID.TID 0000.0001) %MON dynstat_eta_mean             =  -2.5107764854860E+00
(PID.TID 0000.0001) %MON dynstat_eta_sd               =   4.9523149725660E+00
(PID.TID 0000.0001) %MON dynstat_eta_del2             =   2.0714013689353E-01
(PID.TID 0000.0001) %MON dynstat_uvel_max             =   2.6994760641834E-03
(PID.TID 0000.0001) %MON dynstat_uvel_min             =  -2.9283327040588E-03
(PID.TID 0000.0001) %MON dynstat_uvel_mean            =  -1.4913609158681E-07
(PID.TID 0000.0001) %MON dynstat_uvel_sd              =   8.4204866837156E-05
(PID.TID 0000.0001) %MON dynstat_uvel_del2            =   3.8679000935905E-07
(PID.TID 0000.0001) %MON dynstat_vvel_max             =   3.7371917775211E-03
(PID.TID 0000.0001) %MON dynstat_vvel_min             =  -3.0101271600040E-03
(PID.TID 0000.0001) %MON dynstat_vvel_mean            =   1.0219830316477E-05
(PID.TID 0000.0001) %MON dynstat_vvel_sd              =   1.3420737487548E-04
(PID.TID 0000.0001) %MON dynstat_vvel_del2            =   5.9124744545056E-07
(PID.TID 0000.0001) %MON dynstat_wvel_max             =   2.7440123374849E-04
(PID.TID 0000.0001) %MON dynstat_wvel_min             =  -2.7325080597986E-04
(PID.TID 0000.0001) %MON dynstat_wvel_mean            =   5.3291803003018E-09
(PID.TID 0000.0001) %MON dynstat_wvel_sd              =   4.3737637910144E-05
(PID.TID 0000.0001) %MON dynstat_wvel_del2            =   2.2815570599607E-07
(PID.TID 0000.0001) %MON dynstat_theta_max            =   1.2000000000000E+00
(PID.TID 0000.0001) %MON dynstat_theta_min            =  -1.0000000000000E+00
(PID.TID 0000.0001) %MON dynstat_theta_mean           =   5.6910965258936E-01
(PID.TID 0000.0001) %MON dynstat_theta_sd             =   8.6858697129117E-01
(PID.TID 0000.0001) %MON dynstat_theta_del2           =   1.7579789935374E-06
(PID.TID 0000.0001) %MON dynstat_salt_max             =   3.4700000000000E+01
(PID.TID 0000.0001) %MON dynstat_salt_min             =   3.4000000000000E+01
(PID.TID 0000.0001) %MON dynstat_salt_mean            =   3.4499258012818E+01
(PID.TID 0000.0001) %MON dynstat_salt_sd              =   2.7636751353199E-01
(PID.TID 0000.0001) %MON dynstat_salt_del2            =   5.6050336983201E-07
(PID.TID 0000.0001) %MON advcfl_uvel_max              =   2.9283327040588E-04
(PID.TID 0000.0001) %MON advcfl_vvel_max              =   3.7371917775211E-04
(PID.TID 0000.0001) %MON advcfl_wvel_max              =   1.3720061687425E-03
(PID.TID 0000.0001) %MON advcfl_W_hf_max              =   1.3720061687425E-03
(PID.TID 0000.0001) %MON pe_b_mean                    =  -8.3179494101430E-01
(PID.TID 0000.0001) %MON ke_max                       =   5.9045076475268E-06
(PID.TID 0000.0001) %MON ke_mean                      =   1.2531834064329E-08
(PID.TID 0000.0001) %MON ke_vol                       =   4.2725460422341E+12
(PID.TID 0000.0001) // =======================================================
(PID.TID 0000.0001) // End MONITOR dynamic field statistics
(PID.TID 0000.0001) // =======================================================
(PID.TID 0000.0001) // =======================================================
(PID.TID 0000.0001) // Begin OBCS MONITOR field statistics
(PID.TID 0000.0001) // =======================================================
(PID.TID 0000.0001) %MON obc_N_vVel_max               =   1.0242971653565E-05
(PID.TID 0000.0001) %MON obc_N_vVel_min               =   1.0242971653565E-05
(PID.TID 0000.0001) %MON obc_N_vVel_mean              =   1.0242971653565E-05
(PID.TID 0000.0001) %MON obc_N_vVel_sd                =   9.3748568033735E-13
(PID.TID 0000.0001) %MON obc_N_vVel_Int               =   6.7603612913531E+02
(PID.TID 0000.0001) // =======================================================
(PID.TID 0000.0001) // End OBCS MONITOR field statistics
(PID.TID 0000.0001) // =======================================================
 cg2d: Sum(rhs),rhsMax =   4.52139239900351E+00  2.99868816591125E+02
(PID.TID 0000.0001)      cg2d_init_res =   8.29213641267851E-06
(PID.TID 0000.0001)      cg2d_iters(min,last) =      -1      77
(PID.TID 0000.0001)      cg2d_last_res =   8.99842523428254E-12
(PID.TID 0000.0001) // =======================================================
(PID.TID 0000.0001) // Begin MONITOR dynamic field statistics
(PID.TID 0000.0001) // =======================================================
(PID.TID 0000.0001) %MON time_tsnumber                =                   189
(PID.TID 0000.0001) %MON time_secondsf                =   1.8900000000000E+04
(PID.TID 0000.0001) %MON dynstat_eta_max              =   5.7954138502925E+00
(PID.TID 0000.0001) %MON dynstat_eta_min              =  -1.4197976079546E+01
(PID.TID 0000.0001) %MON dynstat_eta_mean             =  -2.5107862741357E+00
(PID.TID 0000.0001) %MON dynstat_eta_sd               =   4.9523187290062E+00
(PID.TID 0000.0001) %MON dynstat_eta_del2             =   2.0714013869550E-01
(PID.TID 0000.0001) %MON dynstat_uvel_max             =   2.7005312365311E-03
(PID.TID 0000.0001) %MON dynstat_uvel_min             =  -2.9336129138997E-03
(PID.TID 0000.0001) %MON dynstat_uvel_mean            =  -1.5343261510698E-07
(PID.TID 0000.0001) %MON dynstat_uvel_sd              =   8.4377148360297E-05
(PID.TID 0000.0001) %MON dynstat_uvel_del2            =   3.8620471382764E-07
(PID.TID 0000.0001) %MON dynstat_vvel_max             =   3.7498463040304E-03
(PID.TID 0000.0001) %MON dynstat_vvel_min             =  -3.0160880623473E-03
(PID.TID 0000.0001) %MON dynstat_vvel_mean            =   1.0939263542205E-05
(PID.TID 0000.0001) %MON dynstat_vvel_sd              =   1.3420014181131E-04
(PID.TID 0000.0001) %MON dynstat_vvel_del2            =   5.8961300093509E-07
(PID.TID 0000.0001) %MON dynstat_wvel_max             =   2.6832896933304E-04
(PID.TID 0000.0001) %MON dynstat_wvel_min             =  -2.5789888746607E-04
(PID.TID 0000.0001) %MON dynstat_wvel_mean            =   7.0201897429819E-09
(PID.TID 0000.0001) %MON dynstat_wvel_sd              =   4.3599823369129E-05
(PID.TID 0000.0001) %MON dynstat_wvel_del2            =   2.2703720928469E-07
(PID.TID 0000.0001) %MON dynstat_theta_max            =   1.2000000000000E+00
(PID.TID 0000.0001) %MON dynstat_theta_min            =  -1.0000000000000E+00
(PID.TID 0000.0001) %MON dynstat_theta_mean           =   5.6910939409109E-01
(PID.TID 0000.0001) %MON dynstat_theta_sd             =   8.6858683728450E-01
(PID.TID 0000.0001) %MON dynstat_theta_del2           =   1.7506862461001E-06
(PID.TID 0000.0001) %MON dynstat_salt_max             =   3.4700000000000E+01
(PID.TID 0000.0001) %MON dynstat_salt_min             =   3.4000000000000E+01
(PID.TID 0000.0001) %MON dynstat_salt_mean            =   3.4499257909466E+01
(PID.TID 0000.0001) %MON dynstat_salt_sd              =   2.7636746520007E-01
(PID.TID 0000.0001) %MON dynstat_salt_del2            =   5.5827860552383E-07
(PID.TID 0000.0001) %MON advcfl_uvel_max              =   2.9336129138997E-04
(PID.TID 0000.0001) %MON advcfl_vvel_max              =   3.7498463040304E-04
(PID.TID 0000.0001) %MON advcfl_wvel_max              =   1.3416448466652E-03
(PID.TID 0000.0001) %MON advcfl_W_hf_max              =   1.3416448466652E-03
(PID.TID 0000.0001) %MON pe_b_mean                    =  -8.3179806323264E-01
(PID.TID 0000.0001) %MON ke_max                       =   5.9255203422667E-06
(PID.TID 0000.0001) %MON ke_mean                      =   1.2552664630253E-08
(PID.TID 0000.0001) %MON ke_vol                       =   4.2725459876762E+12
(PID.TID 0000.0001) // =======================================================
(PID.TID 0000.0001) // End MONITOR dynamic field statistics
(PID.TID 0000.0001) // =======================================================
(PID.TID 0000.0001) // =======================================================
(PID.TID 0000.0001) // Begin OBCS MONITOR field statistics
(PID.TID 0000.0001) // =======================================================
(PID.TID 0000.0001) %MON obc_N_vVel_max               =   1.0786527354682E-05
(PID.TID 0000.0001) %MON obc_N_vVel_min               =   1.0786527354682E-05
(PID.TID 0000.0001) %MON obc_N_vVel_mean              =   1.0786527354682E-05
(PID.TID 0000.0001) %MON obc_N_vVel_sd                =  -6.7208424769933E-24
(PID.TID 0000.0001) %MON obc_N_vVel_Int               =   7.1191080540901E+02
(PID.TID 0000.0001) // =======================================================
(PID.TID 0000.0001) // End OBCS MONITOR field statistics
(PID.TID 0000.0001) // =======================================================
 cg2d: Sum(rhs),rhsMax =   4.52141009065086E+00  2.99868893369512E+02
(PID.TID 0000.0001)      cg2d_init_res =   8.26154009517752E-06
(PID.TID 0000.0001)      cg2d_iters(min,last) =      -1      77
(PID.TID 0000.0001)      cg2d_last_res =   9.02038119710001E-12
(PID.TID 0000.0001) // =======================================================
(PID.TID 0000.0001) // Begin MONITOR dynamic field statistics
(PID.TID 0000.0001) // =======================================================
(PID.TID 0000.0001) %MON time_tsnumber                =                   190
(PID.TID 0000.0001) %MON time_secondsf                =   1.9000000000000E+04
(PID.TID 0000.0001) %MON dynstat_eta_max              =   5.7953930674571E+00
(PID.TID 0000.0001) %MON dynstat_eta_min              =  -1.4198005540299E+01
(PID.TID 0000.0001) %MON dynstat_eta_mean             =  -2.5107967413949E+00
(PID.TID 0000.0001) %MON dynstat_eta_sd               =   4.9523227544551E+00
(PID.TID 0000.0001) %MON dynstat_eta_del2             =   2.0714014049595E-01
(PID.TID 0000.0001) %MON dynstat_uvel_max             =   2.7014182163505E-03
(PID.TID 0000.0001) %MON dynstat_uvel_min             =  -2.9387533279319E-03
(PID.TID 0000.0001) %MON dynstat_uvel_mean            =  -1.5644608033880E-07
(PID.TID 0000.0001) %MON dynstat_uvel_sd              =   8.4550888257972E-05
(PID.TID 0000.0001) %MON dynstat_uvel_del2            =   3.8561402494733E-07
(PID.TID 0000.0001) %MON dynstat_vvel_max             =   3.7624081704628E-03
(PID.TID 0000.0001) %MON dynstat_vvel_min             =  -3.0218545678942E-03
(PID.TID 0000.0001) %MON dynstat_vvel_mean            =   1.1716381109161E-05
(PID.TID 0000.0001) %MON dynstat_vvel_sd              =   1.3420934208109E-04
(PID.TID 0000.0001) %MON dynstat_vvel_del2            =   5.8826804820322E-07
(PID.TID 0000.0001) %MON dynstat_wvel_max             =   2.5786416112260E-04
(PID.TID 0000.0001) %MON dynstat_wvel_min             =  -2.3752539513975E-04
(PID.TID 0000.0001) %MON dynstat_wvel_mean            =   8.5872950754666E-09
(PID.TID 0000.0001) %MON dynstat_wvel_sd              =   4.3484222704735E-05
(PID.TID 0000.0001) %MON dynstat_wvel_del2            =   2.2625183085649E-07
(PID.TID 0000.0001) %MON dynstat_theta_max            =   1.2000000000000E+00
(PID.TID 0000.0001) %MON dynstat_theta_min            =  -1.0000000000000E+00
(PID.TID 0000.0001) %MON dynstat_theta_mean           =   5.6910913586560E-01
(PID.TID 0000.0001) %MON dynstat_theta_sd             =   8.6858670313793E-01
(PID.TID 0000.0001) %MON dynstat_theta_del2           =   1.7431831025809E-06
(PID.TID 0000.0001) %MON dynstat_salt_max             =   3.4700000000000E+01
(PID.TID 0000.0001) %MON dynstat_salt_min             =   3.4000000000000E+01
(PID.TID 0000.0001) %MON dynstat_salt_mean            =   3.4499257806200E+01
(PID.TID 0000.0001) %MON dynstat_salt_sd              =   2.7636741682257E-01
(PID.TID 0000.0001) %MON dynstat_salt_del2            =   5.5598807414582E-07
(PID.TID 0000.0001) %MON advcfl_uvel_max              =   2.9387533279319E-04
(PID.TID 0000.0001) %MON advcfl_vvel_max              =   3.7624081704628E-04
(PID.TID 0000.0001) %MON advcfl_wvel_max              =   1.2893208056130E-03
(PID.TID 0000.0001) %MON advcfl_W_hf_max              =   1.2893208056130E-03
(PID.TID 0000.0001) %MON pe_b_mean                    =  -8.3180138320249E-01
(PID.TID 0000.0001) %MON ke_max                       =   5.9461129195924E-06
(PID.TID 0000.0001) %MON ke_mean                      =   1.2577033679651E-08
(PID.TID 0000.0001) %MON ke_vol                       =   4.2725459295316E+12
(PID.TID 0000.0001) // =======================================================
(PID.TID 0000.0001) // End MONITOR dynamic field statistics
(PID.TID 0000.0001) // =======================================================
(PID.TID 0000.0001) // =======================================================
(PID.TID 0000.0001) // Begin OBCS MONITOR field statistics
(PID.TID 0000.0001) // =======================================================
(PID.TID 0000.0001) %MON obc_N_vVel_max               =   1.1397402610194E-05
(PID.TID 0000.0001) %MON obc_N_vVel_min               =   1.1397402610194E-05
(PID.TID 0000.0001) %MON obc_N_vVel_mean              =   1.1397402610194E-05
(PID.TID 0000.0001) %MON obc_N_vVel_sd                =   8.0388733884609E-13
(PID.TID 0000.0001) %MON obc_N_vVel_Int               =   7.5222857227282E+02
(PID.TID 0000.0001) // =======================================================
(PID.TID 0000.0001) // End OBCS MONITOR field statistics
(PID.TID 0000.0001) // =======================================================
 cg2d: Sum(rhs),rhsMax =   4.52142910817512E+00  2.99868969476223E+02
(PID.TID 0000.0001)      cg2d_init_res =   8.24480582271016E-06
(PID.TID 0000.0001)      cg2d_iters(min,last) =      -1      77
(PID.TID 0000.0001)      cg2d_last_res =   9.10171326656980E-12
(PID.TID 0000.0001) // =======================================================
(PID.TID 0000.0001) // Begin MONITOR dynamic field statistics
(PID.TID 0000.0001) // =======================================================
(PID.TID 0000.0001) %MON time_tsnumber                =                   191
(PID.TID 0000.0001) %MON time_secondsf                =   1.9100000000000E+04
(PID.TID 0000.0001) %MON dynstat_eta_max              =   5.7953711410933E+00
(PID.TID 0000.0001) %MON dynstat_eta_min              =  -1.4198035650769E+01
(PID.TID 0000.0001) %MON dynstat_eta_mean             =  -2.5108079393116E+00
(PID.TID 0000.0001) %MON dynstat_eta_sd               =   4.9523270472426E+00
(PID.TID 0000.0001) %MON dynstat_eta_del2             =   2.0714014229796E-01
(PID.TID 0000.0001) %MON dynstat_uvel_max             =   2.7021378657679E-03
(PID.TID 0000.0001) %MON dynstat_uvel_min             =  -2.9437547543552E-03
(PID.TID 0000.0001) %MON dynstat_uvel_mean            =  -1.5817535802093E-07
(PID.TID 0000.0001) %MON dynstat_uvel_sd              =   8.4726183479197E-05
(PID.TID 0000.0001) %MON dynstat_uvel_del2            =   3.8501815104127E-07
(PID.TID 0000.0001) %MON dynstat_vvel_max             =   3.7748466132932E-03
(PID.TID 0000.0001) %MON dynstat_vvel_min             =  -3.0274579775815E-03
(PID.TID 0000.0001) %MON dynstat_vvel_mean            =   1.2526986773845E-05
(PID.TID 0000.0001) %MON dynstat_vvel_sd              =   1.3423607308207E-04
(PID.TID 0000.0001) %MON dynstat_vvel_del2            =   5.8722120078309E-07
(PID.TID 0000.0001) %MON dynstat_wvel_max             =   2.4313999940563E-04
(PID.TID 0000.0001) %MON dynstat_wvel_min             =  -2.1257472476941E-04
(PID.TID 0000.0001) %MON dynstat_wvel_mean            =   9.9975764843219E-09
(PID.TID 0000.0001) %MON dynstat_wvel_sd              =   4.3392219519048E-05
(PID.TID 0000.0001) %MON dynstat_wvel_del2            =   2.2580710200025E-07
(PID.TID 0000.0001) %MON dynstat_theta_max            =   1.2000000000000E+00
(PID.TID 0000.0001) %MON dynstat_theta_min            =  -1.0000000000000E+00
(PID.TID 0000.0001) %MON dynstat_theta_mean           =   5.6910887792887E-01
(PID.TID 0000.0001) %MON dynstat_theta_sd             =   8.6858656886190E-01
(PID.TID 0000.0001) %MON dynstat_theta_del2           =   1.7354765047834E-06
(PID.TID 0000.0001) %MON dynstat_salt_max             =   3.4700000000000E+01
(PID.TID 0000.0001) %MON dynstat_salt_min             =   3.4000000000000E+01
(PID.TID 0000.0001) %MON dynstat_salt_mean            =   3.4499257703023E+01
(PID.TID 0000.0001) %MON dynstat_salt_sd              =   2.7636736840277E-01
(PID.TID 0000.0001) %MON dynstat_salt_del2            =   5.5363390350221E-07
(PID.TID 0000.0001) %MON advcfl_uvel_max              =   2.9437547543552E-04
(PID.TID 0000.0001) %MON advcfl_vvel_max              =   3.7748466132932E-04
(PID.TID 0000.0001) %MON advcfl_wvel_max              =   1.2156999970282E-03
(PID.TID 0000.0001) %MON advcfl_W_hf_max              =   1.2156999970282E-03
(PID.TID 0000.0001) %MON pe_b_mean                    =  -8.3180490802688E-01
(PID.TID 0000.0001) %MON ke_max                       =   5.9662491011096E-06
(PID.TID 0000.0001) %MON ke_mean                      =   1.2604929800765E-08
(PID.TID 0000.0001) %MON ke_vol                       =   4.2725458673561E+12
(PID.TID 0000.0001) // =======================================================
(PID.TID 0000.0001) // End MONITOR dynamic field statistics
(PID.TID 0000.0001) // =======================================================
(PID.TID 0000.0001) // =======================================================
(PID.TID 0000.0001) // Begin OBCS MONITOR field statistics
(PID.TID 0000.0001) // =======================================================
(PID.TID 0000.0001) %MON obc_N_vVel_max               =   1.2055129418230E-05
(PID.TID 0000.0001) %MON obc_N_vVel_min               =   1.2055129418230E-05
(PID.TID 0000.0001) %MON obc_N_vVel_mean              =   1.2055129418230E-05
(PID.TID 0000.0001) %MON obc_N_vVel_sd                =   3.7944844889986E-12
(PID.TID 0000.0001) %MON obc_N_vVel_Int               =   7.9563854160318E+02
(PID.TID 0000.0001) // =======================================================
(PID.TID 0000.0001) // End OBCS MONITOR field statistics
(PID.TID 0000.0001) // =======================================================
 cg2d: Sum(rhs),rhsMax =   4.52144950373572E+00  2.99869044970137E+02
(PID.TID 0000.0001)      cg2d_init_res =   8.24174666203871E-06
(PID.TID 0000.0001)      cg2d_iters(min,last) =      -1      77
(PID.TID 0000.0001)      cg2d_last_res =   9.29303157857518E-12
(PID.TID 0000.0001) // =======================================================
(PID.TID 0000.0001) // Begin MONITOR dynamic field statistics
(PID.TID 0000.0001) // =======================================================
(PID.TID 0000.0001) %MON time_tsnumber                =                   192
(PID.TID 0000.0001) %MON time_secondsf                =   1.9200000000000E+04
(PID.TID 0000.0001) %MON dynstat_eta_max              =   5.7953480560934E+00
(PID.TID 0000.0001) %MON dynstat_eta_min              =  -1.4198066449189E+01
(PID.TID 0000.0001) %MON dynstat_eta_mean             =  -2.5108198973443E+00
(PID.TID 0000.0001) %MON dynstat_eta_sd               =   4.9523315988090E+00
(PID.TID 0000.0001) %MON dynstat_eta_del2             =   2.0714014410394E-01
(PID.TID 0000.0001) %MON dynstat_uvel_max             =   2.7026910070980E-03
(PID.TID 0000.0001) %MON dynstat_uvel_min             =  -2.9486180419624E-03
(PID.TID 0000.0001) %MON dynstat_uvel_mean            =  -1.5865337886538E-07
(PID.TID 0000.0001) %MON dynstat_uvel_sd              =   8.4903115618063E-05
(PID.TID 0000.0001) %MON dynstat_uvel_del2            =   3.8441728706896E-07
(PID.TID 0000.0001) %MON dynstat_vvel_max             =   3.7871322664120E-03
(PID.TID 0000.0001) %MON dynstat_vvel_min             =  -3.0329282026482E-03
(PID.TID 0000.0001) %MON dynstat_vvel_mean            =   1.3347613901128E-05
(PID.TID 0000.0001) %MON dynstat_vvel_sd              =   1.3427923455075E-04
(PID.TID 0000.0001) %MON dynstat_vvel_del2            =   5.8644108497396E-07
(PID.TID 0000.0001) %MON dynstat_wvel_max             =   2.4517149596644E-04
(PID.TID 0000.0001) %MON dynstat_wvel_min             =  -2.1876015832048E-04
(PID.TID 0000.0001) %MON dynstat_wvel_mean            =   1.1224435949430E-08
(PID.TID 0000.0001) %MON dynstat_wvel_sd              =   4.3322056746307E-05
(PID.TID 0000.0001) %MON dynstat_wvel_del2            =   2.2566489202658E-07
(PID.TID 0000.0001) %MON dynstat_theta_max            =   1.2000000000000E+00
(PID.TID 0000.0001) %MON dynstat_theta_min            =  -1.0000000000000E+00
(PID.TID 0000.0001) %MON dynstat_theta_mean           =   5.6910862028883E-01
(PID.TID 0000.0001) %MON dynstat_theta_sd             =   8.6858643447006E-01
(PID.TID 0000.0001) %MON dynstat_theta_del2           =   1.7276076544433E-06
(PID.TID 0000.0001) %MON dynstat_salt_max             =   3.4700000000000E+01
(PID.TID 0000.0001) %MON dynstat_salt_min             =   3.4000000000000E+01
(PID.TID 0000.0001) %MON dynstat_salt_mean            =   3.4499257599940E+01
(PID.TID 0000.0001) %MON dynstat_salt_sd              =   2.7636731994498E-01
(PID.TID 0000.0001) %MON dynstat_salt_del2            =   5.5122896308627E-07
(PID.TID 0000.0001) %MON advcfl_uvel_max              =   2.9486180419624E-04
(PID.TID 0000.0001) %MON advcfl_vvel_max              =   3.7871322664120E-04
(PID.TID 0000.0001) %MON advcfl_wvel_max              =   1.2258574798322E-03
(PID.TID 0000.0001) %MON advcfl_W_hf_max              =   1.2258574798322E-03
(PID.TID 0000.0001) %MON pe_b_mean                    =  -8.3180863897044E-01
(PID.TID 0000.0001) %MON ke_max                       =   5.9858933018574E-06
(PID.TID 0000.0001) %MON ke_mean                      =   1.2635983505740E-08
(PID.TID 0000.0001) %MON ke_vol                       =   4.2725458008405E+12
(PID.TID 0000.0001) // =======================================================
(PID.TID 0000.0001) // End MONITOR dynamic field statistics
(PID.TID 0000.0001) // =======================================================
(PID.TID 0000.0001) // =======================================================
(PID.TID 0000.0001) // Begin OBCS MONITOR field statistics
(PID.TID 0000.0001) // =======================================================
(PID.TID 0000.0001) %MON obc_N_vVel_max               =   1.2739368585276E-05
(PID.TID 0000.0001) %MON obc_N_vVel_min               =   1.2739368585275E-05
(PID.TID 0000.0001) %MON obc_N_vVel_mean              =   1.2739368585275E-05
(PID.TID 0000.0001) %MON obc_N_vVel_sd                =   2.7473665735657E-12
(PID.TID 0000.0001) %MON obc_N_vVel_Int               =   8.4079832662817E+02
(PID.TID 0000.0001) // =======================================================
(PID.TID 0000.0001) // End OBCS MONITOR field statistics
(PID.TID 0000.0001) // =======================================================
 cg2d: Sum(rhs),rhsMax =   4.52147129004454E+00  2.99869119914309E+02
(PID.TID 0000.0001)      cg2d_init_res =   8.25075420998881E-06
(PID.TID 0000.0001)      cg2d_iters(min,last) =      -1      77
(PID.TID 0000.0001)      cg2d_last_res =   9.57396881236093E-12
(PID.TID 0000.0001) // =======================================================
(PID.TID 0000.0001) // Begin MONITOR dynamic field statistics
(PID.TID 0000.0001) // =======================================================
(PID.TID 0000.0001) %MON time_tsnumber                =                   193
(PID.TID 0000.0001) %MON time_secondsf                =   1.9300000000000E+04
(PID.TID 0000.0001) %MON dynstat_eta_max              =   5.7953238287673E+00
(PID.TID 0000.0001) %MON dynstat_eta_min              =  -1.4198097953297E+01
(PID.TID 0000.0001) %MON dynstat_eta_mean             =  -2.5108326230805E+00
(PID.TID 0000.0001) %MON dynstat_eta_sd               =   4.9523363943833E+00
(PID.TID 0000.0001) %MON dynstat_eta_del2             =   2.0714014591594E-01
(PID.TID 0000.0001) %MON dynstat_uvel_max             =   2.7030784289508E-03
(PID.TID 0000.0001) %MON dynstat_uvel_min             =  -2.9533440799305E-03
(PID.TID 0000.0001) %MON dynstat_uvel_mean            =  -1.5794470467997E-07
(PID.TID 0000.0001) %MON dynstat_uvel_sd              =   8.5081750532675E-05
(PID.TID 0000.0001) %MON dynstat_uvel_del2            =   3.8381161317394E-07
(PID.TID 0000.0001) %MON dynstat_vvel_max             =   3.7992378472431E-03
(PID.TID 0000.0001) %MON dynstat_vvel_min             =  -3.0382930857860E-03
(PID.TID 0000.0001) %MON dynstat_vvel_mean            =   1.4156093695305E-05
(PID.TID 0000.0001) %MON dynstat_vvel_sd              =   1.3433574608181E-04
(PID.TID 0000.0001) %MON dynstat_vvel_del2            =   5.8586189424840E-07
(PID.TID 0000.0001) %MON dynstat_wvel_max             =   2.4701269917296E-04
(PID.TID 0000.0001) %MON dynstat_wvel_min             =  -2.2891173664487E-04
(PID.TID 0000.0001) %MON dynstat_wvel_mean            =   1.2247870333321E-08
(PID.TID 0000.0001) %MON dynstat_wvel_sd              =   4.3269171842922E-05
(PID.TID 0000.0001) %MON dynstat_wvel_del2            =   2.2574817967301E-07
(PID.TID 0000.0001) %MON dynstat_theta_max            =   1.2000000000000E+00
(PID.TID 0000.0001) %MON dynstat_theta_min            =  -1.0000000000000E+00
(PID.TID 0000.0001) %MON dynstat_theta_mean           =   5.6910836294478E-01
(PID.TID 0000.0001) %MON dynstat_theta_sd             =   8.6858629998503E-01
(PID.TID 0000.0001) %MON dynstat_theta_del2           =   1.7196468324201E-06
(PID.TID 0000.0001) %MON dynstat_salt_max             =   3.4700000000000E+01
(PID.TID 0000.0001) %MON dynstat_salt_min             =   3.4000000000000E+01
(PID.TID 0000.0001) %MON dynstat_salt_mean            =   3.4499257496949E+01
(PID.TID 0000.0001) %MON dynstat_salt_sd              =   2.7636727145643E-01
(PID.TID 0000.0001) %MON dynstat_salt_del2            =   5.4879543338828E-07
(PID.TID 0000.0001) %MON advcfl_uvel_max              =   2.9533440799305E-04
(PID.TID 0000.0001) %MON advcfl_vvel_max              =   3.7992378472431E-04
(PID.TID 0000.0001) %MON advcfl_wvel_max              =   1.2350634958648E-03
(PID.TID 0000.0001) %MON advcfl_W_hf_max              =   1.2350634958648E-03
(PID.TID 0000.0001) %MON pe_b_mean                    =  -8.3181257181222E-01
(PID.TID 0000.0001) %MON ke_max                       =   6.0050115673093E-06
(PID.TID 0000.0001) %MON ke_mean                      =   1.2669501748701E-08
(PID.TID 0000.0001) %MON ke_vol                       =   4.2725457298098E+12
(PID.TID 0000.0001) // =======================================================
(PID.TID 0000.0001) // End MONITOR dynamic field statistics
(PID.TID 0000.0001) // =======================================================
(PID.TID 0000.0001) // =======================================================
(PID.TID 0000.0001) // Begin OBCS MONITOR field statistics
(PID.TID 0000.0001) // =======================================================
(PID.TID 0000.0001) %MON obc_N_vVel_max               =   1.3430435433524E-05
(PID.TID 0000.0001) %MON obc_N_vVel_min               =   1.3430435433523E-05
(PID.TID 0000.0001) %MON obc_N_vVel_mean              =   1.3430435433523E-05
(PID.TID 0000.0001) %MON obc_N_vVel_sd                =   4.4118696477954E-12
(PID.TID 0000.0001) %MON obc_N_vVel_Int               =   8.8640873861252E+02
(PID.TID 0000.0001) // =======================================================
(PID.TID 0000.0001) // End OBCS MONITOR field statistics
(PID.TID 0000.0001) // =======================================================
 cg2d: Sum(rhs),rhsMax =   4.52149444265285E+00  2.99869194373780E+02
(PID.TID 0000.0001)      cg2d_init_res =   8.26921643680596E-06
(PID.TID 0000.0001)      cg2d_iters(min,last) =      -1      77
(PID.TID 0000.0001)      cg2d_last_res =   9.85935205455311E-12
(PID.TID 0000.0001) // =======================================================
(PID.TID 0000.0001) // Begin MONITOR dynamic field statistics
(PID.TID 0000.0001) // =======================================================
(PID.TID 0000.0001) %MON time_tsnumber                =                   194
(PID.TID 0000.0001) %MON time_secondsf                =   1.9400000000000E+04
(PID.TID 0000.0001) %MON dynstat_eta_max              =   5.7952985047543E+00
(PID.TID 0000.0001) %MON dynstat_eta_min              =  -1.4198130161198E+01
(PID.TID 0000.0001) %MON dynstat_eta_mean             =  -2.5108461034886E+00
(PID.TID 0000.0001) %MON dynstat_eta_sd               =   4.9523414137888E+00
(PID.TID 0000.0001) %MON dynstat_eta_del2             =   2.0714014773589E-01
(PID.TID 0000.0001) %MON dynstat_uvel_max             =   2.7033008915183E-03
(PID.TID 0000.0001) %MON dynstat_uvel_min             =  -2.9579337952903E-03
(PID.TID 0000.0001) %MON dynstat_uvel_mean            =  -1.5614231730489E-07
(PID.TID 0000.0001) %MON dynstat_uvel_sd              =   8.5262138983119E-05
(PID.TID 0000.0001) %MON dynstat_uvel_del2            =   3.8320130363861E-07
(PID.TID 0000.0001) %MON dynstat_vvel_max             =   3.8111387432114E-03
(PID.TID 0000.0001) %MON dynstat_vvel_min             =  -3.0435778227638E-03
(PID.TID 0000.0001) %MON dynstat_vvel_mean            =   1.4932050538686E-05
(PID.TID 0000.0001) %MON dynstat_vvel_sd              =   1.3440101105331E-04
(PID.TID 0000.0001) %MON dynstat_vvel_del2            =   5.8539332866255E-07
(PID.TID 0000.0001) %MON dynstat_wvel_max             =   2.4843440517266E-04
(PID.TID 0000.0001) %MON dynstat_wvel_min             =  -2.4135532419875E-04
(PID.TID 0000.0001) %MON dynstat_wvel_mean            =   1.3054557961187E-08
(PID.TID 0000.0001) %MON dynstat_wvel_sd              =   4.3226898373772E-05
(PID.TID 0000.0001) %MON dynstat_wvel_del2            =   2.2595310167785E-07
(PID.TID 0000.0001) %MON dynstat_theta_max            =   1.2000000000000E+00
(PID.TID 0000.0001) %MON dynstat_theta_min            =  -1.0000000000000E+00
(PID.TID 0000.0001) %MON dynstat_theta_mean           =   5.6910810588790E-01
(PID.TID 0000.0001) %MON dynstat_theta_sd             =   8.6858616547764E-01
(PID.TID 0000.0001) %MON dynstat_theta_del2           =   1.7116834335755E-06
(PID.TID 0000.0001) %MON dynstat_salt_max             =   3.4700000000000E+01
(PID.TID 0000.0001) %MON dynstat_salt_min             =   3.4000000000000E+01
(PID.TID 0000.0001) %MON dynstat_salt_mean            =   3.4499257394048E+01
(PID.TID 0000.0001) %MON dynstat_salt_sd              =   2.7636722295979E-01
(PID.TID 0000.0001) %MON dynstat_salt_del2            =   5.4636160726982E-07
(PID.TID 0000.0001) %MON advcfl_uvel_max              =   2.9579337952903E-04
(PID.TID 0000.0001) %MON advcfl_vvel_max              =   3.8111387432114E-04
(PID.TID 0000.0001) %MON advcfl_wvel_max              =   1.2421720258633E-03
(PID.TID 0000.0001) %MON advcfl_W_hf_max              =   1.2421720258633E-03
(PID.TID 0000.0001) %MON pe_b_mean                    =  -8.3181669732078E-01
(PID.TID 0000.0001) %MON ke_max                       =   6.0235724261472E-06
(PID.TID 0000.0001) %MON ke_mean                      =   1.2704542223586E-08
(PID.TID 0000.0001) %MON ke_vol                       =   4.2725456542189E+12
(PID.TID 0000.0001) // =======================================================
(PID.TID 0000.0001) // End MONITOR dynamic field statistics
(PID.TID 0000.0001) // =======================================================
(PID.TID 0000.0001) // =======================================================
(PID.TID 0000.0001) // Begin OBCS MONITOR field statistics
(PID.TID 0000.0001) // =======================================================
(PID.TID 0000.0001) %MON obc_N_vVel_max               =   1.4109772444243E-05
(PID.TID 0000.0001) %MON obc_N_vVel_min               =   1.4109772444242E-05
(PID.TID 0000.0001) %MON obc_N_vVel_mean              =   1.4109772444243E-05
(PID.TID 0000.0001) %MON obc_N_vVel_sd                =  -5.9453606527249E-25
(PID.TID 0000.0001) %MON obc_N_vVel_Int               =   9.3124498132001E+02
(PID.TID 0000.0001) // =======================================================
(PID.TID 0000.0001) // End OBCS MONITOR field statistics
(PID.TID 0000.0001) // =======================================================
 cg2d: Sum(rhs),rhsMax =   4.52151890306886E+00  2.99869268412912E+02
(PID.TID 0000.0001)      cg2d_init_res =   8.29381716026951E-06
(PID.TID 0000.0001)      cg2d_iters(min,last) =      -1      78
(PID.TID 0000.0001)      cg2d_last_res =   8.38424914306649E-12
(PID.TID 0000.0001) // =======================================================
(PID.TID 0000.0001) // Begin MONITOR dynamic field statistics
(PID.TID 0000.0001) // =======================================================
(PID.TID 0000.0001) %MON time_tsnumber                =                   195
(PID.TID 0000.0001) %MON time_secondsf                =   1.9500000000000E+04
(PID.TID 0000.0001) %MON dynstat_eta_max              =   5.7952721547657E+00
(PID.TID 0000.0001) %MON dynstat_eta_min              =  -1.4198163052599E+01
(PID.TID 0000.0001) %MON dynstat_eta_mean             =  -2.5108603066267E+00
(PID.TID 0000.0001) %MON dynstat_eta_sd               =   4.9523466323305E+00
(PID.TID 0000.0001) %MON dynstat_eta_del2             =   2.0714014956541E-01
(PID.TID 0000.0001) %MON dynstat_uvel_max             =   2.7033591304964E-03
(PID.TID 0000.0001) %MON dynstat_uvel_min             =  -2.9623881457326E-03
(PID.TID 0000.0001) %MON dynstat_uvel_mean            =  -1.5336413633909E-07
(PID.TID 0000.0001) %MON dynstat_uvel_sd              =   8.5444317162559E-05
(PID.TID 0000.0001) %MON dynstat_uvel_del2            =   3.8258652804089E-07
(PID.TID 0000.0001) %MON dynstat_vvel_max             =   3.8228134804879E-03
(PID.TID 0000.0001) %MON dynstat_vvel_min             =  -3.0488044940151E-03
(PID.TID 0000.0001) %MON dynstat_vvel_mean            =   1.5657316423448E-05
(PID.TID 0000.0001) %MON dynstat_vvel_sd              =   1.3446956182822E-04
(PID.TID 0000.0001) %MON dynstat_vvel_del2            =   5.8493333006984E-07
(PID.TID 0000.0001) %MON dynstat_wvel_max             =   2.4685359605495E-04
(PID.TID 0000.0001) %MON dynstat_wvel_min             =  -2.5062837889432E-04
(PID.TID 0000.0001) %MON dynstat_wvel_mean            =   1.3637754914465E-08
(PID.TID 0000.0001) %MON dynstat_wvel_sd              =   4.3187422548187E-05
(PID.TID 0000.0001) %MON dynstat_wvel_del2            =   2.2616406116826E-07
(PID.TID 0000.0001) %MON dynstat_theta_max            =   1.2000000000000E+00
(PID.TID 0000.0001) %MON dynstat_theta_min            =  -1.0000000000000E+00
(PID.TID 0000.0001) %MON dynstat_theta_mean           =   5.6910784910192E-01
(PID.TID 0000.0001) %MON dynstat_theta_sd             =   8.6858603100506E-01
(PID.TID 0000.0001) %MON dynstat_theta_del2           =   1.7038144396789E-06
(PID.TID 0000.0001) %MON dynstat_salt_max             =   3.4700000000000E+01
(PID.TID 0000.0001) %MON dynstat_salt_min             =   3.4000000000000E+01
(PID.TID 0000.0001) %MON dynstat_salt_mean            =   3.4499257291232E+01
(PID.TID 0000.0001) %MON dynstat_salt_sd              =   2.7636717447334E-01
(PID.TID 0000.0001) %MON dynstat_salt_del2            =   5.4395813627850E-07
(PID.TID 0000.0001) %MON advcfl_uvel_max              =   2.9623881457326E-04
(PID.TID 0000.0001) %MON advcfl_vvel_max              =   3.8228134804879E-04
(PID.TID 0000.0001) %MON advcfl_wvel_max              =   1.2531418944716E-03
(PID.TID 0000.0001) %MON advcfl_W_hf_max              =   1.2531418944716E-03
(PID.TID 0000.0001) %MON pe_b_mean                    =  -8.3182100182874E-01
(PID.TID 0000.0001) %MON ke_max                       =   6.0415476248324E-06
(PID.TID 0000.0001) %MON ke_mean                      =   1.2740017269340E-08
(PID.TID 0000.0001) %MON ke_vol                       =   4.2725455741453E+12
(PID.TID 0000.0001) // =======================================================
(PID.TID 0000.0001) // End MONITOR dynamic field statistics
(PID.TID 0000.0001) // =======================================================
(PID.TID 0000.0001) // =======================================================
(PID.TID 0000.0001) // Begin OBCS MONITOR field statistics
(PID.TID 0000.0001) // =======================================================
(PID.TID 0000.0001) %MON obc_N_vVel_max               =   1.4760361005286E-05
(PID.TID 0000.0001) %MON obc_N_vVel_min               =   1.4760361005286E-05
(PID.TID 0000.0001) %MON obc_N_vVel_mean              =   1.4760361005286E-05
(PID.TID 0000.0001) %MON obc_N_vVel_sd                =  -1.0520703415909E-23
(PID.TID 0000.0001) %MON obc_N_vVel_Int               =   9.7418382634889E+02
(PID.TID 0000.0001) // =======================================================
(PID.TID 0000.0001) // End OBCS MONITOR field statistics
(PID.TID 0000.0001) // =======================================================
 cg2d: Sum(rhs),rhsMax =   4.52154458254902E+00  2.99869342092950E+02
(PID.TID 0000.0001)      cg2d_init_res =   8.32089105468168E-06
(PID.TID 0000.0001)      cg2d_iters(min,last) =      -1      78
(PID.TID 0000.0001)      cg2d_last_res =   8.47003014543065E-12
(PID.TID 0000.0001) // =======================================================
(PID.TID 0000.0001) // Begin MONITOR dynamic field statistics
(PID.TID 0000.0001) // =======================================================
(PID.TID 0000.0001) %MON time_tsnumber                =                   196
(PID.TID 0000.0001) %MON time_secondsf                =   1.9600000000000E+04
(PID.TID 0000.0001) %MON dynstat_eta_max              =   5.7952448740947E+00
(PID.TID 0000.0001) %MON dynstat_eta_min              =  -1.4198196590827E+01
(PID.TID 0000.0001) %MON dynstat_eta_mean             =  -2.5108751837276E+00
(PID.TID 0000.0001) %MON dynstat_eta_sd               =   4.9523520217286E+00
(PID.TID 0000.0001) %MON dynstat_eta_del2             =   2.0714015140562E-01
(PID.TID 0000.0001) %MON dynstat_uvel_max             =   2.7032538766534E-03
(PID.TID 0000.0001) %MON dynstat_uvel_min             =  -2.9667081259781E-03
(PID.TID 0000.0001) %MON dynstat_uvel_mean            =  -1.4974681792222E-07
(PID.TID 0000.0001) %MON dynstat_uvel_sd              =   8.5628307720999E-05
(PID.TID 0000.0001) %MON dynstat_uvel_del2            =   3.8196745320432E-07
(PID.TID 0000.0001) %MON dynstat_vvel_max             =   3.8342441052919E-03
(PID.TID 0000.0001) %MON dynstat_vvel_min             =  -3.0539917183354E-03
(PID.TID 0000.0001) %MON dynstat_vvel_mean            =   1.6316259726215E-05
(PID.TID 0000.0001) %MON dynstat_vvel_sd              =   1.3453579520719E-04
(PID.TID 0000.0001) %MON dynstat_vvel_del2            =   5.8438179577736E-07
(PID.TID 0000.0001) %MON dynstat_wvel_max             =   2.4875573571388E-04
(PID.TID 0000.0001) %MON dynstat_wvel_min             =  -2.6014995792565E-04
(PID.TID 0000.0001) %MON dynstat_wvel_mean            =   1.3997070436043E-08
(PID.TID 0000.0001) %MON dynstat_wvel_sd              =   4.3142854681139E-05
(PID.TID 0000.0001) %MON dynstat_wvel_del2            =   2.2626946347578E-07
(PID.TID 0000.0001) %MON dynstat_theta_max            =   1.2000000000000E+00
(PID.TID 0000.0001) %MON dynstat_theta_min            =  -1.0000000000000E+00
(PID.TID 0000.0001) %MON dynstat_theta_mean           =   5.6910759256329E-01
(PID.TID 0000.0001) %MON dynstat_theta_sd             =   8.6858589658117E-01
(PID.TID 0000.0001) %MON dynstat_theta_del2           =   1.6961307620875E-06
(PID.TID 0000.0001) %MON dynstat_salt_max             =   3.4700000000000E+01
(PID.TID 0000.0001) %MON dynstat_salt_min             =   3.4000000000000E+01
(PID.TID 0000.0001) %MON dynstat_salt_mean            =   3.4499257188493E+01
(PID.TID 0000.0001) %MON dynstat_salt_sd              =   2.7636712600142E-01
(PID.TID 0000.0001) %MON dynstat_salt_del2            =   5.4161381503337E-07
(PID.TID 0000.0001) %MON advcfl_uvel_max              =   2.9667081259781E-04
(PID.TID 0000.0001) %MON advcfl_vvel_max              =   3.8342441052919E-04
(PID.TID 0000.0001) %MON advcfl_wvel_max              =   1.3007497896282E-03
(PID.TID 0000.0001) %MON advcfl_W_hf_max              =   1.3007497896282E-03
(PID.TID 0000.0001) %MON pe_b_mean                    =  -8.3182546788505E-01
(PID.TID 0000.0001) %MON ke_max                       =   6.0589127929077E-06
(PID.TID 0000.0001) %MON ke_mean                      =   1.2774813467514E-08
(PID.TID 0000.0001) %MON ke_vol                       =   4.2725454897786E+12
(PID.TID 0000.0001) // =======================================================
(PID.TID 0000.0001) // End MONITOR dynamic field statistics
(PID.TID 0000.0001) // =======================================================
(PID.TID 0000.0001) // =======================================================
(PID.TID 0000.0001) // Begin OBCS MONITOR field statistics
(PID.TID 0000.0001) // =======================================================
(PID.TID 0000.0001) %MON obc_N_vVel_max               =   1.5367064336228E-05
(PID.TID 0000.0001) %MON obc_N_vVel_min               =   1.5367064336228E-05
(PID.TID 0000.0001) %MON obc_N_vVel_mean              =   1.5367064336228E-05
(PID.TID 0000.0001) %MON obc_N_vVel_sd                =  -1.9180250453573E-23
(PID.TID 0000.0001) %MON obc_N_vVel_Int               =   1.0142262461911E+03
(PID.TID 0000.0001) // =======================================================
(PID.TID 0000.0001) // End OBCS MONITOR field statistics
(PID.TID 0000.0001) // =======================================================
 cg2d: Sum(rhs),rhsMax =   4.52157136645005E+00  2.99869415470970E+02
(PID.TID 0000.0001)      cg2d_init_res =   8.34688922017661E-06
(PID.TID 0000.0001)      cg2d_iters(min,last) =      -1      78
(PID.TID 0000.0001)      cg2d_last_res =   8.44399836593553E-12
(PID.TID 0000.0001) // =======================================================
(PID.TID 0000.0001) // Begin MONITOR dynamic field statistics
(PID.TID 0000.0001) // =======================================================
(PID.TID 0000.0001) %MON time_tsnumber                =                   197
(PID.TID 0000.0001) %MON time_secondsf                =   1.9700000000000E+04
(PID.TID 0000.0001) %MON dynstat_eta_max              =   5.7952167743653E+00
(PID.TID 0000.0001) %MON dynstat_eta_min              =  -1.4198230724300E+01
(PID.TID 0000.0001) %MON dynstat_eta_mean             =  -2.5108906716068E+00
(PID.TID 0000.0001) %MON dynstat_eta_sd               =   4.9523575511128E+00
(PID.TID 0000.0001) %MON dynstat_eta_del2             =   2.0714015325738E-01
(PID.TID 0000.0001) %MON dynstat_uvel_max             =   2.7029858400169E-03
(PID.TID 0000.0001) %MON dynstat_uvel_min             =  -2.9708947385210E-03
(PID.TID 0000.0001) %MON dynstat_uvel_mean            =  -1.4544232752702E-07
(PID.TID 0000.0001) %MON dynstat_uvel_sd              =   8.5814120900382E-05
(PID.TID 0000.0001) %MON dynstat_uvel_del2            =   3.8134424337317E-07
(PID.TID 0000.0001) %MON dynstat_vvel_max             =   3.8454163891757E-03
(PID.TID 0000.0001) %MON dynstat_vvel_min             =  -3.0591543867073E-03
(PID.TID 0000.0001) %MON dynstat_vvel_mean            =   1.6896025095910E-05
(PID.TID 0000.0001) %MON dynstat_vvel_sd              =   1.3459470062295E-04
(PID.TID 0000.0001) %MON dynstat_vvel_del2            =   5.8365340994375E-07
(PID.TID 0000.0001) %MON dynstat_wvel_max             =   2.5125280216613E-04
(PID.TID 0000.0001) %MON dynstat_wvel_min             =  -2.6960232008418E-04
(PID.TID 0000.0001) %MON dynstat_wvel_mean            =   1.4137933836870E-08
(PID.TID 0000.0001) %MON dynstat_wvel_sd              =   4.3086265517934E-05
(PID.TID 0000.0001) %MON dynstat_wvel_del2            =   2.2617588722351E-07
(PID.TID 0000.0001) %MON dynstat_theta_max            =   1.2000000000000E+00
(PID.TID 0000.0001) %MON dynstat_theta_min            =  -1.0000000000000E+00
(PID.TID 0000.0001) %MON dynstat_theta_mean           =   5.6910733624342E-01
(PID.TID 0000.0001) %MON dynstat_theta_sd             =   8.6858576203589E-01
(PID.TID 0000.0001) %MON dynstat_theta_del2           =   1.6887045181502E-06
(PID.TID 0000.0001) %MON dynstat_salt_max             =   3.4700000000000E+01
(PID.TID 0000.0001) %MON dynstat_salt_min             =   3.4000000000000E+01
(PID.TID 0000.0001) %MON dynstat_salt_mean            =   3.4499257085823E+01
(PID.TID 0000.0001) %MON dynstat_salt_sd              =   2.7636707749001E-01
(PID.TID 0000.0001) %MON dynstat_salt_del2            =   5.3935145727492E-07
(PID.TID 0000.0001) %MON advcfl_uvel_max              =   2.9708947385210E-04
(PID.TID 0000.0001) %MON advcfl_vvel_max              =   3.8454163891757E-04
(PID.TID 0000.0001) %MON advcfl_wvel_max              =   1.3480116004209E-03
(PID.TID 0000.0001) %MON advcfl_W_hf_max              =   1.3480116004209E-03
(PID.TID 0000.0001) %MON pe_b_mean                    =  -8.3183007496452E-01
(PID.TID 0000.0001) %MON ke_max                       =   6.0756478578250E-06
(PID.TID 0000.0001) %MON ke_mean                      =   1.2807911729427E-08
(PID.TID 0000.0001) %MON ke_vol                       =   4.2725454014087E+12
(PID.TID 0000.0001) // =======================================================
(PID.TID 0000.0001) // End MONITOR dynamic field statistics
(PID.TID 0000.0001) // =======================================================
(PID.TID 0000.0001) // =======================================================
(PID.TID 0000.0001) // Begin OBCS MONITOR field statistics
(PID.TID 0000.0001) // =======================================================
(PID.TID 0000.0001) %MON obc_N_vVel_max               =   1.5916903684720E-05
(PID.TID 0000.0001) %MON obc_N_vVel_min               =   1.5916903684720E-05
(PID.TID 0000.0001) %MON obc_N_vVel_mean              =   1.5916903684720E-05
(PID.TID 0000.0001) %MON obc_N_vVel_sd                =  -8.6853964318068E-24
(PID.TID 0000.0001) %MON obc_N_vVel_Int               =   1.0505156431915E+03
(PID.TID 0000.0001) // =======================================================
(PID.TID 0000.0001) // End OBCS MONITOR field statistics
(PID.TID 0000.0001) // =======================================================
 cg2d: Sum(rhs),rhsMax =   4.52159911895503E+00  2.99869488597612E+02
(PID.TID 0000.0001)      cg2d_init_res =   8.36880201636709E-06
(PID.TID 0000.0001)      cg2d_iters(min,last) =      -1      78
(PID.TID 0000.0001)      cg2d_last_res =   8.30979108772397E-12
(PID.TID 0000.0001) // =======================================================
(PID.TID 0000.0001) // Begin MONITOR dynamic field statistics
(PID.TID 0000.0001) // =======================================================
(PID.TID 0000.0001) %MON time_tsnumber                =                   198
(PID.TID 0000.0001) %MON time_secondsf                =   1.9800000000000E+04
(PID.TID 0000.0001) %MON dynstat_eta_max              =   5.7951879822411E+00
(PID.TID 0000.0001) %MON dynstat_eta_min              =  -1.4198265389370E+01
(PID.TID 0000.0001) %MON dynstat_eta_mean             =  -2.5109066952675E+00
(PID.TID 0000.0001) %MON dynstat_eta_sd               =   4.9523631879888E+00
(PID.TID 0000.0001) %MON dynstat_eta_del2             =   2.0714015512109E-01
(PID.TID 0000.0001) %MON dynstat_uvel_max             =   2.7025557470211E-03
(PID.TID 0000.0001) %MON dynstat_uvel_min             =  -2.9749490011248E-03
(PID.TID 0000.0001) %MON dynstat_uvel_mean            =  -1.4061213628342E-07
(PID.TID 0000.0001) %MON dynstat_uvel_sd              =   8.6001755916298E-05
(PID.TID 0000.0001) %MON dynstat_uvel_del2            =   3.8071705972641E-07
(PID.TID 0000.0001) %MON dynstat_vvel_max             =   3.8563199793398E-03
(PID.TID 0000.0001) %MON dynstat_vvel_min             =  -3.0643035822884E-03
(PID.TID 0000.0001) %MON dynstat_vvel_mean            =   1.7386683655177E-05
(PID.TID 0000.0001) %MON dynstat_vvel_sd              =   1.3464248188896E-04
(PID.TID 0000.0001) %MON dynstat_vvel_del2            =   5.8268797525963E-07
(PID.TID 0000.0001) %MON dynstat_wvel_max             =   2.5825684292845E-04
(PID.TID 0000.0001) %MON dynstat_wvel_min             =  -2.7386442220614E-04
(PID.TID 0000.0001) %MON dynstat_wvel_mean            =   1.4071200735299E-08
(PID.TID 0000.0001) %MON dynstat_wvel_sd              =   4.3012553366446E-05
(PID.TID 0000.0001) %MON dynstat_wvel_del2            =   2.2581904218755E-07
(PID.TID 0000.0001) %MON dynstat_theta_max            =   1.2000000000000E+00
(PID.TID 0000.0001) %MON dynstat_theta_min            =  -1.0000000000000E+00
(PID.TID 0000.0001) %MON dynstat_theta_mean           =   5.6910708010997E-01
(PID.TID 0000.0001) %MON dynstat_theta_sd             =   8.6858562727744E-01
(PID.TID 0000.0001) %MON dynstat_theta_del2           =   1.6815780340734E-06
(PID.TID 0000.0001) %MON dynstat_salt_max             =   3.4700000000000E+01
(PID.TID 0000.0001) %MON dynstat_salt_min             =   3.4000000000000E+01
(PID.TID 0000.0001) %MON dynstat_salt_mean            =   3.4499256983210E+01
(PID.TID 0000.0001) %MON dynstat_salt_sd              =   2.7636702890987E-01
(PID.TID 0000.0001) %MON dynstat_salt_del2            =   5.3718435777541E-07
(PID.TID 0000.0001) %MON advcfl_uvel_max              =   2.9749490011248E-04
(PID.TID 0000.0001) %MON advcfl_vvel_max              =   3.8563199793398E-04
(PID.TID 0000.0001) %MON advcfl_wvel_max              =   1.3693221110307E-03
(PID.TID 0000.0001) %MON advcfl_W_hf_max              =   1.3693221110307E-03
(PID.TID 0000.0001) %MON pe_b_mean                    =  -8.3183480021016E-01
(PID.TID 0000.0001) %MON ke_max                       =   6.0917374590660E-06
(PID.TID 0000.0001) %MON ke_mean                      =   1.2838492336402E-08
(PID.TID 0000.0001) %MON ke_vol                       =   4.2725453094107E+12
(PID.TID 0000.0001) // =======================================================
(PID.TID 0000.0001) // End MONITOR dynamic field statistics
(PID.TID 0000.0001) // =======================================================
(PID.TID 0000.0001) // =======================================================
(PID.TID 0000.0001) // Begin OBCS MONITOR field statistics
(PID.TID 0000.0001) // =======================================================
(PID.TID 0000.0001) %MON obc_N_vVel_max               =   1.6399244143512E-05
(PID.TID 0000.0001) %MON obc_N_vVel_min               =   1.6399244143512E-05
(PID.TID 0000.0001) %MON obc_N_vVel_mean              =   1.6399244143512E-05
(PID.TID 0000.0001) %MON obc_N_vVel_sd                =   8.8061445835761E-13
(PID.TID 0000.0001) %MON obc_N_vVel_Int               =   1.0823501134718E+03
(PID.TID 0000.0001) // =======================================================
(PID.TID 0000.0001) // End OBCS MONITOR field statistics
(PID.TID 0000.0001) // =======================================================
 cg2d: Sum(rhs),rhsMax =   4.52162768802388E+00  2.99869561516520E+02
(PID.TID 0000.0001)      cg2d_init_res =   8.38439696926731E-06
(PID.TID 0000.0001)      cg2d_iters(min,last) =      -1      78
(PID.TID 0000.0001)      cg2d_last_res =   8.10237192772329E-12
(PID.TID 0000.0001) // =======================================================
(PID.TID 0000.0001) // Begin MONITOR dynamic field statistics
(PID.TID 0000.0001) // =======================================================
(PID.TID 0000.0001) %MON time_tsnumber                =                   199
(PID.TID 0000.0001) %MON time_secondsf                =   1.9900000000000E+04
(PID.TID 0000.0001) %MON dynstat_eta_max              =   5.7951586343089E+00
(PID.TID 0000.0001) %MON dynstat_eta_min              =  -1.4198300512592E+01
(PID.TID 0000.0001) %MON dynstat_eta_mean             =  -2.5109231706457E+00
(PID.TID 0000.0001) %MON dynstat_eta_sd               =   4.9523688992000E+00
(PID.TID 0000.0001) %MON dynstat_eta_del2             =   2.0714015699678E-01
(PID.TID 0000.0001) %MON dynstat_uvel_max             =   2.7019643334647E-03
(PID.TID 0000.0001) %MON dynstat_uvel_min             =  -2.9788719350599E-03
(PID.TID 0000.0001) %MON dynstat_uvel_mean            =  -1.3542184105134E-07
(PID.TID 0000.0001) %MON dynstat_uvel_sd              =   8.6191202552646E-05
(PID.TID 0000.0001) %MON dynstat_uvel_del2            =   3.8008606001419E-07
(PID.TID 0000.0001) %MON dynstat_vvel_max             =   3.8669484188798E-03
(PID.TID 0000.0001) %MON dynstat_vvel_min             =  -3.0694465277747E-03
(PID.TID 0000.0001) %MON dynstat_vvel_mean            =   1.7781296585500E-05
(PID.TID 0000.0001) %MON dynstat_vvel_sd              =   1.3467700138764E-04
(PID.TID 0000.0001) %MON dynstat_vvel_del2            =   5.8145715368574E-07
(PID.TID 0000.0001) %MON dynstat_wvel_max             =   2.6128678353453E-04
(PID.TID 0000.0001) %MON dynstat_wvel_min             =  -2.7286080667983E-04
(PID.TID 0000.0001) %MON dynstat_wvel_mean            =   1.3812409473576E-08
(PID.TID 0000.0001) %MON dynstat_wvel_sd              =   4.2919045616883E-05
(PID.TID 0000.0001) %MON dynstat_wvel_del2            =   2.2517062002768E-07
(PID.TID 0000.0001) %MON dynstat_theta_max            =   1.2000000000000E+00
(PID.TID 0000.0001) %MON dynstat_theta_min            =  -1.0000000000000E+00
(PID.TID 0000.0001) %MON dynstat_theta_mean           =   5.6910682412744E-01
(PID.TID 0000.0001) %MON dynstat_theta_sd             =   8.6858549229153E-01
(PID.TID 0000.0001) %MON dynstat_theta_del2           =   1.6747633018422E-06
(PID.TID 0000.0001) %MON dynstat_salt_max             =   3.4700000000000E+01
(PID.TID 0000.0001) %MON dynstat_salt_min             =   3.4000000000000E+01
(PID.TID 0000.0001) %MON dynstat_salt_mean            =   3.4499256880644E+01
(PID.TID 0000.0001) %MON dynstat_salt_sd              =   2.7636698025661E-01
(PID.TID 0000.0001) %MON dynstat_salt_del2            =   5.3511623585611E-07
(PID.TID 0000.0001) %MON advcfl_uvel_max              =   2.9788719350599E-04
(PID.TID 0000.0001) %MON advcfl_vvel_max              =   3.8669484188798E-04
(PID.TID 0000.0001) %MON advcfl_wvel_max              =   1.3643040333991E-03
(PID.TID 0000.0001) %MON advcfl_W_hf_max              =   1.3643040333991E-03
(PID.TID 0000.0001) %MON pe_b_mean                    =  -8.3183961918459E-01
(PID.TID 0000.0001) %MON ke_max                       =   6.1071711388569E-06
(PID.TID 0000.0001) %MON ke_mean                      =   1.2866013269106E-08
(PID.TID 0000.0001) %MON ke_vol                       =   4.2725452142301E+12
(PID.TID 0000.0001) // =======================================================
(PID.TID 0000.0001) // End MONITOR dynamic field statistics
(PID.TID 0000.0001) // =======================================================
(PID.TID 0000.0001) // =======================================================
(PID.TID 0000.0001) // Begin OBCS MONITOR field statistics
(PID.TID 0000.0001) // =======================================================
(PID.TID 0000.0001) %MON obc_N_vVel_max               =   1.6805924323174E-05
(PID.TID 0000.0001) %MON obc_N_vVel_min               =   1.6805924323174E-05
(PID.TID 0000.0001) %MON obc_N_vVel_mean              =   1.6805924323174E-05
(PID.TID 0000.0001) %MON obc_N_vVel_sd                =  -3.2053248736430E-24
(PID.TID 0000.0001) %MON obc_N_vVel_Int               =   1.1091910053295E+03
(PID.TID 0000.0001) // =======================================================
(PID.TID 0000.0001) // End OBCS MONITOR field statistics
(PID.TID 0000.0001) // =======================================================
 cg2d: Sum(rhs),rhsMax =   4.52165691044231E+00  2.99869634263645E+02
(PID.TID 0000.0001)      cg2d_init_res =   8.39227965336693E-06
(PID.TID 0000.0001)      cg2d_iters(min,last) =      -1      77
(PID.TID 0000.0001)      cg2d_last_res =   9.76980608669596E-12
(PID.TID 0000.0001) // =======================================================
(PID.TID 0000.0001) // Begin MONITOR dynamic field statistics
(PID.TID 0000.0001) // =======================================================
(PID.TID 0000.0001) %MON time_tsnumber                =                   200
(PID.TID 0000.0001) %MON time_secondsf                =   2.0000000000000E+04
(PID.TID 0000.0001) %MON dynstat_eta_max              =   5.7951288739692E+00
(PID.TID 0000.0001) %MON dynstat_eta_min              =  -1.4198336013332E+01
(PID.TID 0000.0001) %MON dynstat_eta_mean             =  -2.5109400074074E+00
(PID.TID 0000.0001) %MON dynstat_eta_sd               =   4.9523746518297E+00
(PID.TID 0000.0001) %MON dynstat_eta_del2             =   2.0714015888392E-01
(PID.TID 0000.0001) %MON dynstat_uvel_max             =   2.7012123603321E-03
(PID.TID 0000.0001) %MON dynstat_uvel_min             =  -2.9826645595463E-03
(PID.TID 0000.0001) %MON dynstat_uvel_mean            =  -1.3003562293076E-07
(PID.TID 0000.0001) %MON dynstat_uvel_sd              =   8.6382442781141E-05
(PID.TID 0000.0001) %MON dynstat_uvel_del2            =   3.7945139740551E-07
(PID.TID 0000.0001) %MON dynstat_vvel_max             =   3.8772990616227E-03
(PID.TID 0000.0001) %MON dynstat_vvel_min             =  -3.0745866724109E-03
(PID.TID 0000.0001) %MON dynstat_vvel_mean            =   1.8075895814118E-05
(PID.TID 0000.0001) %MON dynstat_vvel_sd              =   1.3469799720339E-04
(PID.TID 0000.0001) %MON dynstat_vvel_del2            =   5.7996698939182E-07
(PID.TID 0000.0001) %MON dynstat_wvel_max             =   2.6024689337042E-04
(PID.TID 0000.0001) %MON dynstat_wvel_min             =  -2.6662165944041E-04
(PID.TID 0000.0001) %MON dynstat_wvel_mean            =   1.3381102819897E-08
(PID.TID 0000.0001) %MON dynstat_wvel_sd              =   4.2805775301073E-05
(PID.TID 0000.0001) %MON dynstat_wvel_del2            =   2.2424063029953E-07
(PID.TID 0000.0001) %MON dynstat_theta_max            =   1.2000000000000E+00
(PID.TID 0000.0001) %MON dynstat_theta_min            =  -1.0000000000000E+00
(PID.TID 0000.0001) %MON dynstat_theta_mean           =   5.6910656825831E-01
(PID.TID 0000.0001) %MON dynstat_theta_sd             =   8.6858535713786E-01
(PID.TID 0000.0001) %MON dynstat_theta_del2           =   1.6682396402201E-06
(PID.TID 0000.0001) %MON dynstat_salt_max             =   3.4700000000000E+01
(PID.TID 0000.0001) %MON dynstat_salt_min             =   3.4000000000000E+01
(PID.TID 0000.0001) %MON dynstat_salt_mean            =   3.4499256778112E+01
(PID.TID 0000.0001) %MON dynstat_salt_sd              =   2.7636693154907E-01
(PID.TID 0000.0001) %MON dynstat_salt_del2            =   5.3314051676868E-07
(PID.TID 0000.0001) %MON advcfl_uvel_max              =   2.9826645595463E-04
(PID.TID 0000.0001) %MON advcfl_vvel_max              =   3.8772990616227E-04
(PID.TID 0000.0001) %MON advcfl_wvel_max              =   1.3331082972020E-03
(PID.TID 0000.0001) %MON advcfl_W_hf_max              =   1.3331082972020E-03
(PID.TID 0000.0001) %MON pe_b_mean                    =  -8.3184450661381E-01
(PID.TID 0000.0001) %MON ke_max                       =   6.1219434106603E-06
(PID.TID 0000.0001) %MON ke_mean                      =   1.2890253425495E-08
(PID.TID 0000.0001) %MON ke_vol                       =   4.2725451163664E+12
(PID.TID 0000.0001) // =======================================================
(PID.TID 0000.0001) // End MONITOR dynamic field statistics
(PID.TID 0000.0001) // =======================================================
(PID.TID 0000.0001) // =======================================================
(PID.TID 0000.0001) // Begin OBCS MONITOR field statistics
(PID.TID 0000.0001) // =======================================================
(PID.TID 0000.0001) %MON obc_N_vVel_max               =   1.7131301410128E-05
(PID.TID 0000.0001) %MON obc_N_vVel_min               =   1.7131301410128E-05
(PID.TID 0000.0001) %MON obc_N_vVel_mean              =   1.7131301410128E-05
(PID.TID 0000.0001) %MON obc_N_vVel_sd                =   2.0589562014123E-12
(PID.TID 0000.0001) %MON obc_N_vVel_Int               =   1.1306658930685E+03
(PID.TID 0000.0001) // =======================================================
(PID.TID 0000.0001) // End OBCS MONITOR field statistics
(PID.TID 0000.0001) // =======================================================
 cg2d: Sum(rhs),rhsMax =   4.52168661682075E+00  2.99869706867190E+02
(PID.TID 0000.0001)      cg2d_init_res =   8.39228120585106E-06
(PID.TID 0000.0001)      cg2d_iters(min,last) =      -1      77
(PID.TID 0000.0001)      cg2d_last_res =   9.33772239881990E-12
(PID.TID 0000.0001) // =======================================================
(PID.TID 0000.0001) // Begin MONITOR dynamic field statistics
(PID.TID 0000.0001) // =======================================================
(PID.TID 0000.0001) %MON time_tsnumber                =                   201
(PID.TID 0000.0001) %MON time_secondsf                =   2.0100000000000E+04
(PID.TID 0000.0001) %MON dynstat_eta_max              =   5.7950988431680E+00
(PID.TID 0000.0001) %MON dynstat_eta_min              =  -1.4198371806249E+01
(PID.TID 0000.0001) %MON dynstat_eta_mean             =  -2.5109571117247E+00
(PID.TID 0000.0001) %MON dynstat_eta_sd               =   4.9523804140651E+00
(PID.TID 0000.0001) %MON dynstat_eta_del2             =   2.0714016078240E-01
(PID.TID 0000.0001) %MON dynstat_uvel_max             =   2.7003006050599E-03
(PID.TID 0000.0001) %MON dynstat_uvel_min             =  -2.9863278626117E-03
(PID.TID 0000.0001) %MON dynstat_uvel_mean            =  -1.2461294583975E-07
(PID.TID 0000.0001) %MON dynstat_uvel_sd              =   8.6575452276807E-05
(PID.TID 0000.0001) %MON dynstat_uvel_del2            =   3.7881321924900E-07
(PID.TID 0000.0001) %MON dynstat_vvel_max             =   3.8873728666342E-03
(PID.TID 0000.0001) %MON dynstat_vvel_min             =  -3.0797239165574E-03
(PID.TID 0000.0001) %MON dynstat_vvel_mean            =   1.8269388227199E-05
(PID.TID 0000.0001) %MON dynstat_vvel_sd              =   1.3470705053022E-04
(PID.TID 0000.0001) %MON dynstat_vvel_del2            =   5.7825604650476E-07
(PID.TID 0000.0001) %MON dynstat_wvel_max             =   2.5510769348931E-04
(PID.TID 0000.0001) %MON dynstat_wvel_min             =  -2.5528316769666E-04
(PID.TID 0000.0001) %MON dynstat_wvel_mean            =   1.2799938811205E-08
(PID.TID 0000.0001) %MON dynstat_wvel_sd              =   4.2675405841382E-05
(PID.TID 0000.0001) %MON dynstat_wvel_del2            =   2.2307518094919E-07
(PID.TID 0000.0001) %MON dynstat_theta_max            =   1.2000000000000E+00
(PID.TID 0000.0001) %MON dynstat_theta_min            =  -1.0000000000000E+00
(PID.TID 0000.0001) %MON dynstat_theta_mean           =   5.6910631246376E-01
(PID.TID 0000.0001) %MON dynstat_theta_sd             =   8.6858522191485E-01
(PID.TID 0000.0001) %MON dynstat_theta_del2           =   1.6619567350618E-06
(PID.TID 0000.0001) %MON dynstat_salt_max             =   3.4700000000000E+01
(PID.TID 0000.0001) %MON dynstat_salt_min             =   3.4000000000000E+01
(PID.TID 0000.0001) %MON dynstat_salt_mean            =   3.4499256675603E+01
(PID.TID 0000.0001) %MON dynstat_salt_sd              =   2.7636688281883E-01
(PID.TID 0000.0001) %MON dynstat_salt_del2            =   5.3124102510183E-07
(PID.TID 0000.0001) %MON advcfl_uvel_max              =   2.9863278626117E-04
(PID.TID 0000.0001) %MON advcfl_vvel_max              =   3.8873728666342E-04
(PID.TID 0000.0001) %MON advcfl_wvel_max              =   1.2764158384833E-03
(PID.TID 0000.0001) %MON advcfl_W_hf_max              =   1.2764158384833E-03
(PID.TID 0000.0001) %MON pe_b_mean                    =  -8.3184943710021E-01
(PID.TID 0000.0001) %MON ke_max                       =   6.1360536553075E-06
(PID.TID 0000.0001) %MON ke_mean                      =   1.2911316580700E-08
(PID.TID 0000.0001) %MON ke_vol                       =   4.2725450163560E+12
(PID.TID 0000.0001) // =======================================================
(PID.TID 0000.0001) // End MONITOR dynamic field statistics
(PID.TID 0000.0001) // =======================================================
(PID.TID 0000.0001) // =======================================================
(PID.TID 0000.0001) // Begin OBCS MONITOR field statistics
(PID.TID 0000.0001) // =======================================================
(PID.TID 0000.0001) %MON obc_N_vVel_max               =   1.7372233157982E-05
(PID.TID 0000.0001) %MON obc_N_vVel_min               =   1.7372233157982E-05
(PID.TID 0000.0001) %MON obc_N_vVel_mean              =   1.7372233157982E-05
(PID.TID 0000.0001) %MON obc_N_vVel_sd                =  -1.8714961359012E-23
(PID.TID 0000.0001) %MON obc_N_vVel_Int               =   1.1465673884268E+03
(PID.TID 0000.0001) // =======================================================
(PID.TID 0000.0001) // End OBCS MONITOR field statistics
(PID.TID 0000.0001) // =======================================================
 cg2d: Sum(rhs),rhsMax =   4.52171663641680E+00  2.99869779346800E+02
(PID.TID 0000.0001)      cg2d_init_res =   8.38435600454985E-06
(PID.TID 0000.0001)      cg2d_iters(min,last) =      -1      77
(PID.TID 0000.0001)      cg2d_last_res =   8.83773055410689E-12
(PID.TID 0000.0001) // =======================================================
(PID.TID 0000.0001) // Begin MONITOR dynamic field statistics
(PID.TID 0000.0001) // =======================================================
(PID.TID 0000.0001) %MON time_tsnumber                =                   202
(PID.TID 0000.0001) %MON time_secondsf                =   2.0200000000000E+04
(PID.TID 0000.0001) %MON dynstat_eta_max              =   5.7950686847469E+00
(PID.TID 0000.0001) %MON dynstat_eta_min              =  -1.4198407803890E+01
(PID.TID 0000.0001) %MON dynstat_eta_mean             =  -2.5109743889464E+00
(PID.TID 0000.0001) %MON dynstat_eta_sd               =   4.9523861559251E+00
(PID.TID 0000.0001) %MON dynstat_eta_del2             =   2.0714016269138E-01
(PID.TID 0000.0001) %MON dynstat_uvel_max             =   2.6992299002977E-03
(PID.TID 0000.0001) %MON dynstat_uvel_min             =  -2.9898628324005E-03
(PID.TID 0000.0001) %MON dynstat_uvel_mean            =  -1.1930256076801E-07
(PID.TID 0000.0001) %MON dynstat_uvel_sd              =   8.6770202352340E-05
(PID.TID 0000.0001) %MON dynstat_uvel_del2            =   3.7817166983622E-07
(PID.TID 0000.0001) %MON dynstat_vvel_max             =   3.8971741739147E-03
(PID.TID 0000.0001) %MON dynstat_vvel_min             =  -3.0848547949169E-03
(PID.TID 0000.0001) %MON dynstat_vvel_mean            =   1.8363390447128E-05
(PID.TID 0000.0001) %MON dynstat_vvel_sd              =   1.3470731345299E-04
(PID.TID 0000.0001) %MON dynstat_vvel_del2            =   5.7638951153034E-07
(PID.TID 0000.0001) %MON dynstat_wvel_max             =   2.4590815348969E-04
(PID.TID 0000.0001) %MON dynstat_wvel_min             =  -2.3908553049509E-04
(PID.TID 0000.0001) %MON dynstat_wvel_mean            =   1.2094138161547E-08
(PID.TID 0000.0001) %MON dynstat_wvel_sd              =   4.2532827108242E-05
(PID.TID 0000.0001) %MON dynstat_wvel_del2            =   2.2175007723794E-07
(PID.TID 0000.0001) %MON dynstat_theta_max            =   1.2000000000000E+00
(PID.TID 0000.0001) %MON dynstat_theta_min            =  -1.0000000000000E+00
(PID.TID 0000.0001) %MON dynstat_theta_mean           =   5.6910605670492E-01
(PID.TID 0000.0001) %MON dynstat_theta_sd             =   8.6858508671527E-01
(PID.TID 0000.0001) %MON dynstat_theta_del2           =   1.6558404832890E-06
(PID.TID 0000.0001) %MON dynstat_salt_max             =   3.4700000000000E+01
(PID.TID 0000.0001) %MON dynstat_salt_min             =   3.4000000000000E+01
(PID.TID 0000.0001) %MON dynstat_salt_mean            =   3.4499256573103E+01
(PID.TID 0000.0001) %MON dynstat_salt_sd              =   2.7636683409523E-01
(PID.TID 0000.0001) %MON dynstat_salt_del2            =   5.2939448788677E-07
(PID.TID 0000.0001) %MON advcfl_uvel_max              =   2.9898628324005E-04
(PID.TID 0000.0001) %MON advcfl_vvel_max              =   3.8971741739147E-04
(PID.TID 0000.0001) %MON advcfl_wvel_max              =   1.2295407674485E-03
(PID.TID 0000.0001) %MON advcfl_W_hf_max              =   1.2295407674485E-03
(PID.TID 0000.0001) %MON pe_b_mean                    =  -8.3185438579566E-01
(PID.TID 0000.0001) %MON ke_max                       =   6.1495059611149E-06
(PID.TID 0000.0001) %MON ke_mean                      =   1.2929597127853E-08
(PID.TID 0000.0001) %MON ke_vol                       =   4.2725449147564E+12
(PID.TID 0000.0001) // =======================================================
(PID.TID 0000.0001) // End MONITOR dynamic field statistics
(PID.TID 0000.0001) // =======================================================
(PID.TID 0000.0001) // =======================================================
(PID.TID 0000.0001) // Begin OBCS MONITOR field statistics
(PID.TID 0000.0001) // =======================================================
(PID.TID 0000.0001) %MON obc_N_vVel_max               =   1.7527980704081E-05
(PID.TID 0000.0001) %MON obc_N_vVel_min               =   1.7527980704080E-05
(PID.TID 0000.0001) %MON obc_N_vVel_mean              =   1.7527980704080E-05
(PID.TID 0000.0001) %MON obc_N_vVel_sd                =   4.9188446730077E-12
(PID.TID 0000.0001) %MON obc_N_vVel_Int               =   1.1568467264693E+03
(PID.TID 0000.0001) // =======================================================
(PID.TID 0000.0001) // End OBCS MONITOR field statistics
(PID.TID 0000.0001) // =======================================================
 cg2d: Sum(rhs),rhsMax =   4.52174680168993E+00  2.99869851715227E+02
(PID.TID 0000.0001)      cg2d_init_res =   8.37002749325789E-06
(PID.TID 0000.0001)      cg2d_iters(min,last) =      -1      75
(PID.TID 0000.0001)      cg2d_last_res =   9.76100080580872E-12
(PID.TID 0000.0001) // =======================================================
(PID.TID 0000.0001) // Begin MONITOR dynamic field statistics
(PID.TID 0000.0001) // =======================================================
(PID.TID 0000.0001) %MON time_tsnumber                =                   203
(PID.TID 0000.0001) %MON time_secondsf                =   2.0300000000000E+04
(PID.TID 0000.0001) %MON dynstat_eta_max              =   5.7950385351975E+00
(PID.TID 0000.0001) %MON dynstat_eta_min              =  -1.4198443918851E+01
(PID.TID 0000.0001) %MON dynstat_eta_mean             =  -2.5109917461418E+00
(PID.TID 0000.0001) %MON dynstat_eta_sd               =   4.9523918499295E+00
(PID.TID 0000.0001) %MON dynstat_eta_del2             =   2.0714016460957E-01
(PID.TID 0000.0001) %MON dynstat_uvel_max             =   2.6980010986080E-03
(PID.TID 0000.0001) %MON dynstat_uvel_min             =  -2.9932704225857E-03
(PID.TID 0000.0001) %MON dynstat_uvel_mean            =  -1.1423830712087E-07
(PID.TID 0000.0001) %MON dynstat_uvel_sd              =   8.6966661594039E-05
(PID.TID 0000.0001) %MON dynstat_uvel_del2            =   3.7752688457663E-07
(PID.TID 0000.0001) %MON dynstat_vvel_max             =   3.9067103681134E-03
(PID.TID 0000.0001) %MON dynstat_vvel_min             =  -3.0899728439211E-03
(PID.TID 0000.0001) %MON dynstat_vvel_mean            =   1.8362006317245E-05
(PID.TID 0000.0001) %MON dynstat_vvel_sd              =   1.3470304185811E-04
(PID.TID 0000.0001) %MON dynstat_vvel_del2            =   5.7445008071935E-07
(PID.TID 0000.0001) %MON dynstat_wvel_max             =   2.3275673091282E-04
(PID.TID 0000.0001) %MON dynstat_wvel_min             =  -2.1836873939093E-04
(PID.TID 0000.0001) %MON dynstat_wvel_mean            =   1.1290295044611E-08
(PID.TID 0000.0001) %MON dynstat_wvel_sd              =   4.2384469116067E-05
(PID.TID 0000.0001) %MON dynstat_wvel_del2            =   2.2036085738773E-07
(PID.TID 0000.0001) %MON dynstat_theta_max            =   1.2000000000000E+00
(PID.TID 0000.0001) %MON dynstat_theta_min            =  -1.0000000000000E+00
(PID.TID 0000.0001) %MON dynstat_theta_mean           =   5.6910580094441E-01
(PID.TID 0000.0001) %MON dynstat_theta_sd             =   8.6858495156936E-01
(PID.TID 0000.0001) %MON dynstat_theta_del2           =   1.6498044284699E-06
(PID.TID 0000.0001) %MON dynstat_salt_max             =   3.4700000000000E+01
(PID.TID 0000.0001) %MON dynstat_salt_min             =   3.4000000000000E+01
(PID.TID 0000.0001) %MON dynstat_salt_mean            =   3.4499256470602E+01
(PID.TID 0000.0001) %MON dynstat_salt_sd              =   2.7636678538800E-01
(PID.TID 0000.0001) %MON dynstat_salt_del2            =   5.2757351420073E-07
(PID.TID 0000.0001) %MON advcfl_uvel_max              =   2.9932704225857E-04
(PID.TID 0000.0001) %MON advcfl_vvel_max              =   3.9067103681134E-04
(PID.TID 0000.0001) %MON advcfl_wvel_max              =   1.1637836545641E-03
(PID.TID 0000.0001) %MON advcfl_W_hf_max              =   1.1637836545641E-03
(PID.TID 0000.0001) %MON pe_b_mean                    =  -8.3185932901223E-01
(PID.TID 0000.0001) %MON ke_max                       =   6.1623087991353E-06
(PID.TID 0000.0001) %MON ke_mean                      =   1.2945713996633E-08
(PID.TID 0000.0001) %MON ke_vol                       =   4.2725448121297E+12
(PID.TID 0000.0001) // =======================================================
(PID.TID 0000.0001) // End MONITOR dynamic field statistics
(PID.TID 0000.0001) // =======================================================
(PID.TID 0000.0001) // =======================================================
(PID.TID 0000.0001) // Begin OBCS MONITOR field statistics
(PID.TID 0000.0001) // =======================================================
(PID.TID 0000.0001) %MON obc_N_vVel_max               =   1.7600089273600E-05
(PID.TID 0000.0001) %MON obc_N_vVel_min               =   1.7600089273600E-05
(PID.TID 0000.0001) %MON obc_N_vVel_mean              =   1.7600089273600E-05
(PID.TID 0000.0001) %MON obc_N_vVel_sd                =   5.0485148929453E-12
(PID.TID 0000.0001) %MON obc_N_vVel_Int               =   1.1616058920576E+03
(PID.TID 0000.0001) // =======================================================
(PID.TID 0000.0001) // End OBCS MONITOR field statistics
(PID.TID 0000.0001) // =======================================================
 cg2d: Sum(rhs),rhsMax =   4.52177695242583E+00  2.99869923978640E+02
(PID.TID 0000.0001)      cg2d_init_res =   8.35090660089285E-06
(PID.TID 0000.0001)      cg2d_iters(min,last) =      -1      74
(PID.TID 0000.0001)      cg2d_last_res =   9.68056711124610E-12
(PID.TID 0000.0001) // =======================================================
(PID.TID 0000.0001) // Begin MONITOR dynamic field statistics
(PID.TID 0000.0001) // =======================================================
(PID.TID 0000.0001) %MON time_tsnumber                =                   204
(PID.TID 0000.0001) %MON time_secondsf                =   2.0400000000000E+04
(PID.TID 0000.0001) %MON dynstat_eta_max              =   5.7950085214159E+00
(PID.TID 0000.0001) %MON dynstat_eta_min              =  -1.4198480066906E+01
(PID.TID 0000.0001) %MON dynstat_eta_mean             =  -2.5110090943931E+00
(PID.TID 0000.0001) %MON dynstat_eta_sd               =   4.9523974716503E+00
(PID.TID 0000.0001) %MON dynstat_eta_del2             =   2.0714016653546E-01
(PID.TID 0000.0001) %MON dynstat_uvel_max             =   2.6966151212022E-03
(PID.TID 0000.0001) %MON dynstat_uvel_min             =  -2.9965515514654E-03
(PID.TID 0000.0001) %MON dynstat_uvel_mean            =  -1.0954005618299E-07
(PID.TID 0000.0001) %MON dynstat_uvel_sd              =   8.7164797144708E-05
(PID.TID 0000.0001) %MON dynstat_uvel_del2            =   3.7687899145884E-07
(PID.TID 0000.0001) %MON dynstat_vvel_max             =   3.9159914158216E-03
(PID.TID 0000.0001) %MON dynstat_vvel_min             =  -3.0950690778253E-03
(PID.TID 0000.0001) %MON dynstat_vvel_mean            =   1.8271550622891E-05
(PID.TID 0000.0001) %MON dynstat_vvel_sd              =   1.3469900308161E-04
(PID.TID 0000.0001) %MON dynstat_vvel_del2            =   5.7252684860567E-07
(PID.TID 0000.0001) %MON dynstat_wvel_max             =   2.2883746627467E-04
(PID.TID 0000.0001) %MON dynstat_wvel_min             =  -2.1318616877674E-04
(PID.TID 0000.0001) %MON dynstat_wvel_mean            =   1.0415906466171E-08
(PID.TID 0000.0001) %MON dynstat_wvel_sd              =   4.2237437865568E-05
(PID.TID 0000.0001) %MON dynstat_wvel_del2            =   2.1901040208851E-07
(PID.TID 0000.0001) %MON dynstat_theta_max            =   1.2000000000000E+00
(PID.TID 0000.0001) %MON dynstat_theta_min            =  -1.0000000000000E+00
(PID.TID 0000.0001) %MON dynstat_theta_mean           =   5.6910554514692E-01
(PID.TID 0000.0001) %MON dynstat_theta_sd             =   8.6858481651711E-01
(PID.TID 0000.0001) %MON dynstat_theta_del2           =   1.6437653898683E-06
(PID.TID 0000.0001) %MON dynstat_salt_max             =   3.4700000000000E+01
(PID.TID 0000.0001) %MON dynstat_salt_min             =   3.4000000000000E+01
(PID.TID 0000.0001) %MON dynstat_salt_mean            =   3.4499256368087E+01
(PID.TID 0000.0001) %MON dynstat_salt_sd              =   2.7636673670980E-01
(PID.TID 0000.0001) %MON dynstat_salt_del2            =   5.2575192639770E-07
(PID.TID 0000.0001) %MON advcfl_uvel_max              =   2.9965515514654E-04
(PID.TID 0000.0001) %MON advcfl_vvel_max              =   3.9159914158216E-04
(PID.TID 0000.0001) %MON advcfl_wvel_max              =   1.1441873313734E-03
(PID.TID 0000.0001) %MON advcfl_W_hf_max              =   1.1441873313734E-03
(PID.TID 0000.0001) %MON pe_b_mean                    =  -8.3186424476222E-01
(PID.TID 0000.0001) %MON ke_max                       =   6.1744745466533E-06
(PID.TID 0000.0001) %MON ke_mean                      =   1.2960422917239E-08
(PID.TID 0000.0001) %MON ke_vol                       =   4.2725447090279E+12
(PID.TID 0000.0001) // =======================================================
(PID.TID 0000.0001) // End MONITOR dynamic field statistics
(PID.TID 0000.0001) // =======================================================
(PID.TID 0000.0001) // =======================================================
(PID.TID 0000.0001) // Begin OBCS MONITOR field statistics
(PID.TID 0000.0001) // =======================================================
(PID.TID 0000.0001) %MON obc_N_vVel_max               =   1.7592170618694E-05
(PID.TID 0000.0001) %MON obc_N_vVel_min               =   1.7592170618693E-05
(PID.TID 0000.0001) %MON obc_N_vVel_mean              =   1.7592170618693E-05
(PID.TID 0000.0001) %MON obc_N_vVel_sd                =  -8.1167097606766E-24
(PID.TID 0000.0001) %MON obc_N_vVel_Int               =   1.1610832608338E+03
(PID.TID 0000.0001) // =======================================================
(PID.TID 0000.0001) // End OBCS MONITOR field statistics
(PID.TID 0000.0001) // =======================================================
 cg2d: Sum(rhs),rhsMax =   4.52180693943815E+00  2.99869996136900E+02
(PID.TID 0000.0001)      cg2d_init_res =   8.32914018158579E-06
(PID.TID 0000.0001)      cg2d_iters(min,last) =      -1      74
(PID.TID 0000.0001)      cg2d_last_res =   9.30415930341423E-12
(PID.TID 0000.0001) // =======================================================
(PID.TID 0000.0001) // Begin MONITOR dynamic field statistics
(PID.TID 0000.0001) // =======================================================
(PID.TID 0000.0001) %MON time_tsnumber                =                   205
(PID.TID 0000.0001) %MON time_secondsf                =   2.0500000000000E+04
(PID.TID 0000.0001) %MON dynstat_eta_max              =   5.7949787588039E+00
(PID.TID 0000.0001) %MON dynstat_eta_min              =  -1.4198516167844E+01
(PID.TID 0000.0001) %MON dynstat_eta_mean             =  -2.5110263508539E+00
(PID.TID 0000.0001) %MON dynstat_eta_sd               =   4.9524030001422E+00
(PID.TID 0000.0001) %MON dynstat_eta_del2             =   2.0714016846730E-01
(PID.TID 0000.0001) %MON dynstat_uvel_max             =   2.6950729014246E-03
(PID.TID 0000.0001) %MON dynstat_uvel_min             =  -2.9997071016616E-03
(PID.TID 0000.0001) %MON dynstat_uvel_mean            =  -1.0530777279776E-07
(PID.TID 0000.0001) %MON dynstat_uvel_sd              =   8.7364576735368E-05
(PID.TID 0000.0001) %MON dynstat_uvel_del2            =   3.7622811339320E-07
(PID.TID 0000.0001) %MON dynstat_vvel_max             =   3.9250295431064E-03
(PID.TID 0000.0001) %MON dynstat_vvel_min             =  -3.1001322158764E-03
(PID.TID 0000.0001) %MON dynstat_vvel_mean            =   1.8100237891008E-05
(PID.TID 0000.0001) %MON dynstat_vvel_sd              =   1.3469983931797E-04
(PID.TID 0000.0001) %MON dynstat_vvel_del2            =   5.7070361233162E-07
(PID.TID 0000.0001) %MON dynstat_wvel_max             =   2.3495245977790E-04
(PID.TID 0000.0001) %MON dynstat_wvel_min             =  -2.1868056056506E-04
(PID.TID 0000.0001) %MON dynstat_wvel_mean            =   9.4983732342265E-09
(PID.TID 0000.0001) %MON dynstat_wvel_sd              =   4.2098573209200E-05
(PID.TID 0000.0001) %MON dynstat_wvel_del2            =   2.1779546335194E-07
(PID.TID 0000.0001) %MON dynstat_theta_max            =   1.2000000000000E+00
(PID.TID 0000.0001) %MON dynstat_theta_min            =  -1.0000000000000E+00
(PID.TID 0000.0001) %MON dynstat_theta_mean           =   5.6910528928013E-01
(PID.TID 0000.0001) %MON dynstat_theta_sd             =   8.6858468152414E-01
(PID.TID 0000.0001) %MON dynstat_theta_del2           =   1.6376479996069E-06
(PID.TID 0000.0001) %MON dynstat_salt_max             =   3.4700000000000E+01
(PID.TID 0000.0001) %MON dynstat_salt_min             =   3.4000000000000E+01
(PID.TID 0000.0001) %MON dynstat_salt_mean            =   3.4499256265549E+01
(PID.TID 0000.0001) %MON dynstat_salt_sd              =   2.7636668804981E-01
(PID.TID 0000.0001) %MON dynstat_salt_del2            =   5.2390595804150E-07
(PID.TID 0000.0001) %MON advcfl_uvel_max              =   2.9997071016616E-04
(PID.TID 0000.0001) %MON advcfl_vvel_max              =   3.9250295431064E-04
(PID.TID 0000.0001) %MON advcfl_wvel_max              =   1.1747622988895E-03
(PID.TID 0000.0001) %MON advcfl_W_hf_max              =   1.1747622988895E-03
(PID.TID 0000.0001) %MON pe_b_mean                    =  -8.3186911321682E-01
(PID.TID 0000.0001) %MON ke_max                       =   6.1860190481999E-06
(PID.TID 0000.0001) %MON ke_mean                      =   1.2974519396069E-08
(PID.TID 0000.0001) %MON ke_vol                       =   4.2725446059793E+12
(PID.TID 0000.0001) // =======================================================
(PID.TID 0000.0001) // End MONITOR dynamic field statistics
(PID.TID 0000.0001) // =======================================================
(PID.TID 0000.0001) // =======================================================
(PID.TID 0000.0001) // Begin OBCS MONITOR field statistics
(PID.TID 0000.0001) // =======================================================
(PID.TID 0000.0001) %MON obc_N_vVel_max               =   1.7509687441881E-05
(PID.TID 0000.0001) %MON obc_N_vVel_min               =   1.7509687441881E-05
(PID.TID 0000.0001) %MON obc_N_vVel_mean              =   1.7509687441881E-05
(PID.TID 0000.0001) %MON obc_N_vVel_sd                =  -1.1890721305450E-23
(PID.TID 0000.0001) %MON obc_N_vVel_Int               =   1.1556393711641E+03
(PID.TID 0000.0001) // =======================================================
(PID.TID 0000.0001) // End OBCS MONITOR field statistics
(PID.TID 0000.0001) // =======================================================
 cg2d: Sum(rhs),rhsMax =   4.52183662765455E+00  2.99870068187248E+02
(PID.TID 0000.0001)      cg2d_init_res =   8.30639575387563E-06
(PID.TID 0000.0001)      cg2d_iters(min,last) =      -1      74
(PID.TID 0000.0001)      cg2d_last_res =   8.96818221683753E-12
(PID.TID 0000.0001) // =======================================================
(PID.TID 0000.0001) // Begin MONITOR dynamic field statistics
(PID.TID 0000.0001) // =======================================================
(PID.TID 0000.0001) %MON time_tsnumber                =                   206
(PID.TID 0000.0001) %MON time_secondsf                =   2.0600000000000E+04
(PID.TID 0000.0001) %MON dynstat_eta_max              =   5.7949493490846E+00
(PID.TID 0000.0001) %MON dynstat_eta_min              =  -1.4198552148003E+01
(PID.TID 0000.0001) %MON dynstat_eta_mean             =  -2.5110434404933E+00
(PID.TID 0000.0001) %MON dynstat_eta_sd               =   4.9524084182591E+00
(PID.TID 0000.0001) %MON dynstat_eta_del2             =   2.0714017040333E-01
(PID.TID 0000.0001) %MON dynstat_uvel_max             =   2.6933754327025E-03
(PID.TID 0000.0001) %MON dynstat_uvel_min             =  -3.0027379380897E-03
(PID.TID 0000.0001) %MON dynstat_uvel_mean            =  -1.0162061028421E-07
(PID.TID 0000.0001) %MON dynstat_uvel_sd              =   8.7565970148622E-05
(PID.TID 0000.0001) %MON dynstat_uvel_del2            =   3.7557437006146E-07
(PID.TID 0000.0001) %MON dynstat_vvel_max             =   3.9338387203944E-03
(PID.TID 0000.0001) %MON dynstat_vvel_min             =  -3.1051493249104E-03
(PID.TID 0000.0001) %MON dynstat_vvel_mean            =   1.7857838647457E-05
(PID.TID 0000.0001) %MON dynstat_vvel_sd              =   1.3470947377164E-04
(PID.TID 0000.0001) %MON dynstat_vvel_del2            =   5.6904814002894E-07
(PID.TID 0000.0001) %MON dynstat_wvel_max             =   2.3602404959953E-04
(PID.TID 0000.0001) %MON dynstat_wvel_min             =  -2.2494536777424E-04
(PID.TID 0000.0001) %MON dynstat_wvel_mean            =   8.5644619390500E-09
(PID.TID 0000.0001) %MON dynstat_wvel_sd              =   4.1973559901632E-05
(PID.TID 0000.0001) %MON dynstat_wvel_del2            =   2.1679389119700E-07
(PID.TID 0000.0001) %MON dynstat_theta_max            =   1.2000000000000E+00
(PID.TID 0000.0001) %MON dynstat_theta_min            =  -1.0000000000000E+00
(PID.TID 0000.0001) %MON dynstat_theta_mean           =   5.6910503331520E-01
(PID.TID 0000.0001) %MON dynstat_theta_sd             =   8.6858454667323E-01
(PID.TID 0000.0001) %MON dynstat_theta_del2           =   1.6313956341865E-06
(PID.TID 0000.0001) %MON dynstat_salt_max             =   3.4700000000000E+01
(PID.TID 0000.0001) %MON dynstat_salt_min             =   3.4000000000000E+01
(PID.TID 0000.0001) %MON dynstat_salt_mean            =   3.4499256162979E+01
(PID.TID 0000.0001) %MON dynstat_salt_sd              =   2.7636663943425E-01
(PID.TID 0000.0001) %MON dynstat_salt_del2            =   5.2201767611752E-07
(PID.TID 0000.0001) %MON advcfl_uvel_max              =   3.0027379380897E-04
(PID.TID 0000.0001) %MON advcfl_vvel_max              =   3.9338387203944E-04
(PID.TID 0000.0001) %MON advcfl_wvel_max              =   1.1801202479977E-03
(PID.TID 0000.0001) %MON advcfl_W_hf_max              =   1.1801202479977E-03
(PID.TID 0000.0001) %MON pe_b_mean                    =  -8.3187391707868E-01
(PID.TID 0000.0001) %MON ke_max                       =   6.1969610664845E-06
(PID.TID 0000.0001) %MON ke_mean                      =   1.2988745141688E-08
(PID.TID 0000.0001) %MON ke_vol                       =   4.2725445034759E+12
(PID.TID 0000.0001) // =======================================================
(PID.TID 0000.0001) // End MONITOR dynamic field statistics
(PID.TID 0000.0001) // =======================================================
(PID.TID 0000.0001) // =======================================================
(PID.TID 0000.0001) // Begin OBCS MONITOR field statistics
(PID.TID 0000.0001) // =======================================================
(PID.TID 0000.0001) %MON obc_N_vVel_max               =   1.7359674033031E-05
(PID.TID 0000.0001) %MON obc_N_vVel_min               =   1.7359674033030E-05
(PID.TID 0000.0001) %MON obc_N_vVel_mean              =   1.7359674033031E-05
(PID.TID 0000.0001) %MON obc_N_vVel_sd                =  -1.2666203129718E-23
(PID.TID 0000.0001) %MON obc_N_vVel_Int               =   1.1457384861800E+03
(PID.TID 0000.0001) // =======================================================
(PID.TID 0000.0001) // End OBCS MONITOR field statistics
(PID.TID 0000.0001) // =======================================================
 cg2d: Sum(rhs),rhsMax =   4.52186589873200E+00  2.99870140122730E+02
(PID.TID 0000.0001)      cg2d_init_res =   8.28414285345539E-06
(PID.TID 0000.0001)      cg2d_iters(min,last) =      -1      74
(PID.TID 0000.0001)      cg2d_last_res =   8.67386350593447E-12
(PID.TID 0000.0001) // =======================================================
(PID.TID 0000.0001) // Begin MONITOR dynamic field statistics
(PID.TID 0000.0001) // =======================================================
(PID.TID 0000.0001) %MON time_tsnumber                =                   207
(PID.TID 0000.0001) %MON time_secondsf                =   2.0700000000000E+04
(PID.TID 0000.0001) %MON dynstat_eta_max              =   5.7949203788676E+00
(PID.TID 0000.0001) %MON dynstat_eta_min              =  -1.4198587941579E+01
(PID.TID 0000.0001) %MON dynstat_eta_mean             =  -2.5110602975351E+00
(PID.TID 0000.0001) %MON dynstat_eta_sd               =   4.9524137128451E+00
(PID.TID 0000.0001) %MON dynstat_eta_del2             =   2.0714017234174E-01
(PID.TID 0000.0001) %MON dynstat_uvel_max             =   2.6915237426586E-03
(PID.TID 0000.0001) %MON dynstat_uvel_min             =  -3.0056448781082E-03
(PID.TID 0000.0001) %MON dynstat_uvel_mean            =  -9.8537022114859E-08
(PID.TID 0000.0001) %MON dynstat_uvel_sd              =   8.7768950533494E-05
(PID.TID 0000.0001) %MON dynstat_uvel_del2            =   3.7491788028255E-07
(PID.TID 0000.0001) %MON dynstat_vvel_max             =   3.9424341803791E-03
(PID.TID 0000.0001) %MON dynstat_vvel_min             =  -3.1101061953462E-03
(PID.TID 0000.0001) %MON dynstat_vvel_mean            =   1.7555321827708E-05
(PID.TID 0000.0001) %MON dynstat_vvel_sd              =   1.3473062895019E-04
(PID.TID 0000.0001) %MON dynstat_vvel_del2            =   5.6760377020780E-07
(PID.TID 0000.0001) %MON dynstat_wvel_max             =   2.3879879163345E-04
(PID.TID 0000.0001) %MON dynstat_wvel_min             =  -2.3499495437361E-04
(PID.TID 0000.0001) %MON dynstat_wvel_mean            =   7.6395178255700E-09
(PID.TID 0000.0001) %MON dynstat_wvel_sd              =   4.1866203033610E-05
(PID.TID 0000.0001) %MON dynstat_wvel_del2            =   2.1605436062182E-07
(PID.TID 0000.0001) %MON dynstat_theta_max            =   1.2000000000000E+00
(PID.TID 0000.0001) %MON dynstat_theta_min            =  -1.0000000000000E+00
(PID.TID 0000.0001) %MON dynstat_theta_mean           =   5.6910477722729E-01
(PID.TID 0000.0001) %MON dynstat_theta_sd             =   8.6858441198862E-01
(PID.TID 0000.0001) %MON dynstat_theta_del2           =   1.6249759270224E-06
(PID.TID 0000.0001) %MON dynstat_salt_max             =   3.4700000000000E+01
(PID.TID 0000.0001) %MON dynstat_salt_min             =   3.4000000000000E+01
(PID.TID 0000.0001) %MON dynstat_salt_mean            =   3.4499256060368E+01
(PID.TID 0000.0001) %MON dynstat_salt_sd              =   2.7636659087098E-01
(PID.TID 0000.0001) %MON dynstat_salt_del2            =   5.2007704887170E-07
(PID.TID 0000.0001) %MON advcfl_uvel_max              =   3.0056448781082E-04
(PID.TID 0000.0001) %MON advcfl_vvel_max              =   3.9424341803791E-04
(PID.TID 0000.0001) %MON advcfl_wvel_max              =   1.1939939581673E-03
(PID.TID 0000.0001) %MON advcfl_W_hf_max              =   1.1939939581673E-03
(PID.TID 0000.0001) %MON pe_b_mean                    =  -8.3187864186309E-01
(PID.TID 0000.0001) %MON ke_max                       =   6.2073216140172E-06
(PID.TID 0000.0001) %MON ke_mean                      =   1.3003708661342E-08
(PID.TID 0000.0001) %MON ke_vol                       =   4.2725444019635E+12
(PID.TID 0000.0001) // =======================================================
(PID.TID 0000.0001) // End MONITOR dynamic field statistics
(PID.TID 0000.0001) // =======================================================
(PID.TID 0000.0001) // =======================================================
(PID.TID 0000.0001) // Begin OBCS MONITOR field statistics
(PID.TID 0000.0001) // =======================================================
(PID.TID 0000.0001) %MON obc_N_vVel_max               =   1.7150459920527E-05
(PID.TID 0000.0001) %MON obc_N_vVel_min               =   1.7150459920527E-05
(PID.TID 0000.0001) %MON obc_N_vVel_mean              =   1.7150459920527E-05
(PID.TID 0000.0001) %MON obc_N_vVel_sd                =   3.8986464004398E-12
(PID.TID 0000.0001) %MON obc_N_vVel_Int               =   1.1319303547548E+03
(PID.TID 0000.0001) // =======================================================
(PID.TID 0000.0001) // End OBCS MONITOR field statistics
(PID.TID 0000.0001) // =======================================================
 cg2d: Sum(rhs),rhsMax =   4.52189465297517E+00  2.99870211935552E+02
(PID.TID 0000.0001)      cg2d_init_res =   8.26339302551886E-06
(PID.TID 0000.0001)      cg2d_iters(min,last) =      -1      74
(PID.TID 0000.0001)      cg2d_last_res =   8.44492080655202E-12
(PID.TID 0000.0001) // =======================================================
(PID.TID 0000.0001) // Begin MONITOR dynamic field statistics
(PID.TID 0000.0001) // =======================================================
(PID.TID 0000.0001) %MON time_tsnumber                =                   208
(PID.TID 0000.0001) %MON time_secondsf                =   2.0800000000000E+04
(PID.TID 0000.0001) %MON dynstat_eta_max              =   5.7948919175728E+00
(PID.TID 0000.0001) %MON dynstat_eta_min              =  -1.4198623491876E+01
(PID.TID 0000.0001) %MON dynstat_eta_mean             =  -2.5110768665517E+00
(PID.TID 0000.0001) %MON dynstat_eta_sd               =   4.9524188748115E+00
(PID.TID 0000.0001) %MON dynstat_eta_del2             =   2.0714017428082E-01
(PID.TID 0000.0001) %MON dynstat_uvel_max             =   2.6895188963678E-03
(PID.TID 0000.0001) %MON dynstat_uvel_min             =  -3.0084287105296E-03
(PID.TID 0000.0001) %MON dynstat_uvel_mean            =  -9.6094900252243E-08
(PID.TID 0000.0001) %MON dynstat_uvel_sd              =   8.7973495471870E-05
(PID.TID 0000.0001) %MON dynstat_uvel_del2            =   3.7425876259851E-07
(PID.TID 0000.0001) %MON dynstat_vvel_max             =   3.9508319572406E-03
(PID.TID 0000.0001) %MON dynstat_vvel_min             =  -3.1149878392140E-03
(PID.TID 0000.0001) %MON dynstat_vvel_mean            =   1.7204488694045E-05
(PID.TID 0000.0001) %MON dynstat_vvel_sd              =   1.3476451450259E-04
(PID.TID 0000.0001) %MON dynstat_vvel_del2            =   5.6638443013066E-07
(PID.TID 0000.0001) %MON dynstat_wvel_max             =   2.3727891072658E-04
(PID.TID 0000.0001) %MON dynstat_wvel_min             =  -2.4222215786716E-04
(PID.TID 0000.0001) %MON dynstat_wvel_mean            =   6.7469648491382E-09
(PID.TID 0000.0001) %MON dynstat_wvel_sd              =   4.1777963140100E-05
(PID.TID 0000.0001) %MON dynstat_wvel_del2            =   2.1559019419631E-07
(PID.TID 0000.0001) %MON dynstat_theta_max            =   1.2000000000000E+00
(PID.TID 0000.0001) %MON dynstat_theta_min            =  -1.0000000000000E+00
(PID.TID 0000.0001) %MON dynstat_theta_mean           =   5.6910452099580E-01
(PID.TID 0000.0001) %MON dynstat_theta_sd             =   8.6858427750120E-01
(PID.TID 0000.0001) %MON dynstat_theta_del2           =   1.6183899666795E-06
(PID.TID 0000.0001) %MON dynstat_salt_max             =   3.4700000000000E+01
(PID.TID 0000.0001) %MON dynstat_salt_min             =   3.4000000000000E+01
(PID.TID 0000.0001) %MON dynstat_salt_mean            =   3.4499255957710E+01
(PID.TID 0000.0001) %MON dynstat_salt_sd              =   2.7636654236956E-01
(PID.TID 0000.0001) %MON dynstat_salt_del2            =   5.1808461551757E-07
(PID.TID 0000.0001) %MON advcfl_uvel_max              =   3.0084287105296E-04
(PID.TID 0000.0001) %MON advcfl_vvel_max              =   3.9508319572406E-04
(PID.TID 0000.0001) %MON advcfl_wvel_max              =   1.2111107893358E-03
(PID.TID 0000.0001) %MON advcfl_W_hf_max              =   1.2111107893358E-03
(PID.TID 0000.0001) %MON pe_b_mean                    =  -8.3188327608723E-01
(PID.TID 0000.0001) %MON ke_max                       =   6.2171233622488E-06
(PID.TID 0000.0001) %MON ke_mean                      =   1.3019828701914E-08
(PID.TID 0000.0001) %MON ke_vol                       =   4.2725443018326E+12
(PID.TID 0000.0001) // =======================================================
(PID.TID 0000.0001) // End MONITOR dynamic field statistics
(PID.TID 0000.0001) // =======================================================
(PID.TID 0000.0001) // =======================================================
(PID.TID 0000.0001) // Begin OBCS MONITOR field statistics
(PID.TID 0000.0001) // =======================================================
(PID.TID 0000.0001) %MON obc_N_vVel_max               =   1.6891359439342E-05
(PID.TID 0000.0001) %MON obc_N_vVel_min               =   1.6891359439342E-05
(PID.TID 0000.0001) %MON obc_N_vVel_mean              =   1.6891359439342E-05
(PID.TID 0000.0001) %MON obc_N_vVel_sd                =   3.9382275817135E-12
(PID.TID 0000.0001) %MON obc_N_vVel_Int               =   1.1148297229965E+03
(PID.TID 0000.0001) // =======================================================
(PID.TID 0000.0001) // End OBCS MONITOR field statistics
(PID.TID 0000.0001) // =======================================================
 cg2d: Sum(rhs),rhsMax =   4.52192281067930E+00  2.99870283618111E+02
(PID.TID 0000.0001)      cg2d_init_res =   8.24451606617148E-06
(PID.TID 0000.0001)      cg2d_iters(min,last) =      -1      74
(PID.TID 0000.0001)      cg2d_last_res =   8.28973217409830E-12
(PID.TID 0000.0001) // =======================================================
(PID.TID 0000.0001) // Begin MONITOR dynamic field statistics
(PID.TID 0000.0001) // =======================================================
(PID.TID 0000.0001) %MON time_tsnumber                =                   209
(PID.TID 0000.0001) %MON time_secondsf                =   2.0900000000000E+04
(PID.TID 0000.0001) %MON dynstat_eta_max              =   5.7948640167037E+00
(PID.TID 0000.0001) %MON dynstat_eta_min              =  -1.4198658752189E+01
(PID.TID 0000.0001) %MON dynstat_eta_mean             =  -2.5110931032178E+00
(PID.TID 0000.0001) %MON dynstat_eta_sd               =   4.9524238991041E+00
(PID.TID 0000.0001) %MON dynstat_eta_del2             =   2.0714017621897E-01
(PID.TID 0000.0001) %MON dynstat_uvel_max             =   2.6873619897394E-03
(PID.TID 0000.0001) %MON dynstat_uvel_min             =  -3.0110901965372E-03
(PID.TID 0000.0001) %MON dynstat_uvel_mean            =  -9.4312384914056E-08
(PID.TID 0000.0001) %MON dynstat_uvel_sd              =   8.8179588047418E-05
(PID.TID 0000.0001) %MON dynstat_uvel_del2            =   3.7359713700406E-07
(PID.TID 0000.0001) %MON dynstat_vvel_max             =   3.9590484224945E-03
(PID.TID 0000.0001) %MON dynstat_vvel_min             =  -3.1197789426853E-03
(PID.TID 0000.0001) %MON dynstat_vvel_mean            =   1.6817610574456E-05
(PID.TID 0000.0001) %MON dynstat_vvel_sd              =   1.3481072900480E-04
(PID.TID 0000.0001) %MON dynstat_vvel_del2            =   5.6537377486253E-07
(PID.TID 0000.0001) %MON dynstat_wvel_max             =   2.3827918614409E-04
(PID.TID 0000.0001) %MON dynstat_wvel_min             =  -2.5336297828287E-04
(PID.TID 0000.0001) %MON dynstat_wvel_mean            =   5.9078123425225E-09
(PID.TID 0000.0001) %MON dynstat_wvel_sd              =   4.1707820759945E-05
(PID.TID 0000.0001) %MON dynstat_wvel_del2            =   2.1537835361717E-07
(PID.TID 0000.0001) %MON dynstat_theta_max            =   1.2000000000000E+00
(PID.TID 0000.0001) %MON dynstat_theta_min            =  -1.0000000000000E+00
(PID.TID 0000.0001) %MON dynstat_theta_mean           =   5.6910426460477E-01
(PID.TID 0000.0001) %MON dynstat_theta_sd             =   8.6858414311756E-01
(PID.TID 0000.0001) %MON dynstat_theta_del2           =   1.6116675221200E-06
(PID.TID 0000.0001) %MON dynstat_salt_max             =   3.4700000000000E+01
(PID.TID 0000.0001) %MON dynstat_salt_min             =   3.4000000000000E+01
(PID.TID 0000.0001) %MON dynstat_salt_mean            =   3.4499255855000E+01
(PID.TID 0000.0001) %MON dynstat_salt_sd              =   2.7636649390047E-01
(PID.TID 0000.0001) %MON dynstat_salt_del2            =   5.1604990998899E-07
(PID.TID 0000.0001) %MON advcfl_uvel_max              =   3.0110901965372E-04
(PID.TID 0000.0001) %MON advcfl_vvel_max              =   3.9590484224945E-04
(PID.TID 0000.0001) %MON advcfl_wvel_max              =   1.2668148914144E-03
(PID.TID 0000.0001) %MON advcfl_W_hf_max              =   1.2668148914144E-03
(PID.TID 0000.0001) %MON pe_b_mean                    =  -8.3188781136894E-01
(PID.TID 0000.0001) %MON ke_max                       =   6.2263900012736E-06
(PID.TID 0000.0001) %MON ke_mean                      =   1.3037307471643E-08
(PID.TID 0000.0001) %MON ke_vol                       =   4.2725442034127E+12
(PID.TID 0000.0001) // =======================================================
(PID.TID 0000.0001) // End MONITOR dynamic field statistics
(PID.TID 0000.0001) // =======================================================
(PID.TID 0000.0001) // =======================================================
(PID.TID 0000.0001) // Begin OBCS MONITOR field statistics
(PID.TID 0000.0001) // =======================================================
(PID.TID 0000.0001) %MON obc_N_vVel_max               =   1.6592365382544E-05
(PID.TID 0000.0001) %MON obc_N_vVel_min               =   1.6592365382544E-05
(PID.TID 0000.0001) %MON obc_N_vVel_mean              =   1.6592365382544E-05
(PID.TID 0000.0001) %MON obc_N_vVel_sd                =   1.8611337445401E-12
(PID.TID 0000.0001) %MON obc_N_vVel_Int               =   1.0950961152479E+03
(PID.TID 0000.0001) // =======================================================
(PID.TID 0000.0001) // End OBCS MONITOR field statistics
(PID.TID 0000.0001) // =======================================================
 cg2d: Sum(rhs),rhsMax =   4.52195031285620E+00  2.99870355164554E+02
(PID.TID 0000.0001)      cg2d_init_res =   8.22725392044295E-06
(PID.TID 0000.0001)      cg2d_iters(min,last) =      -1      74
(PID.TID 0000.0001)      cg2d_last_res =   8.17782305548823E-12
(PID.TID 0000.0001) // =======================================================
(PID.TID 0000.0001) // Begin MONITOR dynamic field statistics
(PID.TID 0000.0001) // =======================================================
(PID.TID 0000.0001) %MON time_tsnumber                =                   210
(PID.TID 0000.0001) %MON time_secondsf                =   2.1000000000000E+04
(PID.TID 0000.0001) %MON dynstat_eta_max              =   5.7948367109059E+00
(PID.TID 0000.0001) %MON dynstat_eta_min              =  -1.4198693686352E+01
(PID.TID 0000.0001) %MON dynstat_eta_mean             =  -2.5111089747271E+00
(PID.TID 0000.0001) %MON dynstat_eta_sd               =   4.9524287845646E+00
(PID.TID 0000.0001) %MON dynstat_eta_del2             =   2.0714017815464E-01
(PID.TID 0000.0001) %MON dynstat_uvel_max             =   2.6850541436083E-03
(PID.TID 0000.0001) %MON dynstat_uvel_min             =  -3.0136300721111E-03
(PID.TID 0000.0001) %MON dynstat_uvel_mean            =  -9.3189047819680E-08
(PID.TID 0000.0001) %MON dynstat_uvel_sd              =   8.8387217681646E-05
(PID.TID 0000.0001) %MON dynstat_uvel_del2            =   3.7293312642476E-07
(PID.TID 0000.0001) %MON dynstat_vvel_max             =   3.9670998448997E-03
(PID.TID 0000.0001) %MON dynstat_vvel_min             =  -3.1244643001873E-03
(PID.TID 0000.0001) %MON dynstat_vvel_mean            =   1.6407078927323E-05
(PID.TID 0000.0001) %MON dynstat_vvel_sd              =   1.3486737931106E-04
(PID.TID 0000.0001) %MON dynstat_vvel_del2            =   5.6452844620237E-07
(PID.TID 0000.0001) %MON dynstat_wvel_max             =   2.4499372015205E-04
(PID.TID 0000.0001) %MON dynstat_wvel_min             =  -2.5977172852420E-04
(PID.TID 0000.0001) %MON dynstat_wvel_mean            =   5.1402749835063E-09
(PID.TID 0000.0001) %MON dynstat_wvel_sd              =   4.1652480899882E-05
(PID.TID 0000.0001) %MON dynstat_wvel_del2            =   2.1536367577031E-07
(PID.TID 0000.0001) %MON dynstat_theta_max            =   1.2000000000000E+00
(PID.TID 0000.0001) %MON dynstat_theta_min            =  -1.0000000000000E+00
(PID.TID 0000.0001) %MON dynstat_theta_mean           =   5.6910400804308E-01
(PID.TID 0000.0001) %MON dynstat_theta_sd             =   8.6858400879926E-01
(PID.TID 0000.0001) %MON dynstat_theta_del2           =   1.6048615292629E-06
(PID.TID 0000.0001) %MON dynstat_salt_max             =   3.4700000000000E+01
(PID.TID 0000.0001) %MON dynstat_salt_min             =   3.4000000000000E+01
(PID.TID 0000.0001) %MON dynstat_salt_mean            =   3.4499255752234E+01
(PID.TID 0000.0001) %MON dynstat_salt_sd              =   2.7636644545138E-01
(PID.TID 0000.0001) %MON dynstat_salt_del2            =   5.1398985662707E-07
(PID.TID 0000.0001) %MON advcfl_uvel_max              =   3.0136300721111E-04
(PID.TID 0000.0001) %MON advcfl_vvel_max              =   3.9670998448997E-04
(PID.TID 0000.0001) %MON advcfl_wvel_max              =   1.2988586426210E-03
(PID.TID 0000.0001) %MON advcfl_W_hf_max              =   1.2988586426210E-03
(PID.TID 0000.0001) %MON pe_b_mean                    =  -8.3189224243860E-01
(PID.TID 0000.0001) %MON ke_max                       =   6.2351456189028E-06
(PID.TID 0000.0001) %MON ke_mean                      =   1.3056134860906E-08
(PID.TID 0000.0001) %MON ke_vol                       =   4.2725441069669E+12
(PID.TID 0000.0001) // =======================================================
(PID.TID 0000.0001) // End MONITOR dynamic field statistics
(PID.TID 0000.0001) // =======================================================
(PID.TID 0000.0001) // =======================================================
(PID.TID 0000.0001) // Begin OBCS MONITOR field statistics
(PID.TID 0000.0001) // =======================================================
(PID.TID 0000.0001) %MON obc_N_vVel_max               =   1.6263843940305E-05
(PID.TID 0000.0001) %MON obc_N_vVel_min               =   1.6263843940305E-05
(PID.TID 0000.0001) %MON obc_N_vVel_mean              =   1.6263843940305E-05
(PID.TID 0000.0001) %MON obc_N_vVel_sd                =  -6.2555533824323E-24
(PID.TID 0000.0001) %MON obc_N_vVel_Int               =   1.0734137000602E+03
(PID.TID 0000.0001) // =======================================================
(PID.TID 0000.0001) // End OBCS MONITOR field statistics
(PID.TID 0000.0001) // =======================================================
 cg2d: Sum(rhs),rhsMax =   4.52197712137009E+00  2.99870426572197E+02
(PID.TID 0000.0001)      cg2d_init_res =   8.21077720091884E-06
(PID.TID 0000.0001)      cg2d_iters(min,last) =      -1      74
(PID.TID 0000.0001)      cg2d_last_res =   8.10541311607993E-12
(PID.TID 0000.0001) // =======================================================
(PID.TID 0000.0001) // Begin MONITOR dynamic field statistics
(PID.TID 0000.0001) // =======================================================
(PID.TID 0000.0001) %MON time_tsnumber                =                   211
(PID.TID 0000.0001) %MON time_secondsf                =   2.1100000000000E+04
(PID.TID 0000.0001) %MON dynstat_eta_max              =   5.7948100170428E+00
(PID.TID 0000.0001) %MON dynstat_eta_min              =  -1.4198728269022E+01
(PID.TID 0000.0001) %MON dynstat_eta_mean             =  -2.5111244598796E+00
(PID.TID 0000.0001) %MON dynstat_eta_sd               =   4.9524335337039E+00
(PID.TID 0000.0001) %MON dynstat_eta_del2             =   2.0714018008643E-01
(PID.TID 0000.0001) %MON dynstat_uvel_max             =   2.6825964983779E-03
(PID.TID 0000.0001) %MON dynstat_uvel_min             =  -3.0160490511584E-03
(PID.TID 0000.0001) %MON dynstat_uvel_mean            =  -9.2707521163639E-08
(PID.TID 0000.0001) %MON dynstat_uvel_sd              =   8.8596380739509E-05
(PID.TID 0000.0001) %MON dynstat_uvel_del2            =   3.7226685694451E-07
(PID.TID 0000.0001) %MON dynstat_vvel_max             =   3.9750019836760E-03
(PID.TID 0000.0001) %MON dynstat_vvel_min             =  -3.1290292172841E-03
(PID.TID 0000.0001) %MON dynstat_vvel_mean            =   1.5985076058612E-05
(PID.TID 0000.0001) %MON dynstat_vvel_sd              =   1.3493139530473E-04
(PID.TID 0000.0001) %MON dynstat_vvel_del2            =   5.6378485443101E-07
(PID.TID 0000.0001) %MON dynstat_wvel_max             =   2.4804002241509E-04
(PID.TID 0000.0001) %MON dynstat_wvel_min             =  -2.6132853744152E-04
(PID.TID 0000.0001) %MON dynstat_wvel_mean            =   4.4594942576921E-09
(PID.TID 0000.0001) %MON dynstat_wvel_sd              =   4.1606879142201E-05
(PID.TID 0000.0001) %MON dynstat_wvel_del2            =   2.1546750103964E-07
(PID.TID 0000.0001) %MON dynstat_theta_max            =   1.2000000000000E+00
(PID.TID 0000.0001) %MON dynstat_theta_min            =  -1.0000000000000E+00
(PID.TID 0000.0001) %MON dynstat_theta_mean           =   5.6910375130434E-01
(PID.TID 0000.0001) %MON dynstat_theta_sd             =   8.6858387442346E-01
(PID.TID 0000.0001) %MON dynstat_theta_del2           =   1.5980427977730E-06
(PID.TID 0000.0001) %MON dynstat_salt_max             =   3.4700000000000E+01
(PID.TID 0000.0001) %MON dynstat_salt_min             =   3.4000000000000E+01
(PID.TID 0000.0001) %MON dynstat_salt_mean            =   3.4499255649411E+01
(PID.TID 0000.0001) %MON dynstat_salt_sd              =   2.7636639698343E-01
(PID.TID 0000.0001) %MON dynstat_salt_del2            =   5.1192692344855E-07
(PID.TID 0000.0001) %MON advcfl_uvel_max              =   3.0160490511584E-04
(PID.TID 0000.0001) %MON advcfl_vvel_max              =   3.9750019836760E-04
(PID.TID 0000.0001) %MON advcfl_wvel_max              =   1.3066426872076E-03
(PID.TID 0000.0001) %MON advcfl_W_hf_max              =   1.3066426872076E-03
(PID.TID 0000.0001) %MON pe_b_mean                    =  -8.3189656706926E-01
(PID.TID 0000.0001) %MON ke_max                       =   6.2434141123437E-06
(PID.TID 0000.0001) %MON ke_mean                      =   1.3076121302855E-08
(PID.TID 0000.0001) %MON ke_vol                       =   4.2725440126901E+12
(PID.TID 0000.0001) // =======================================================
(PID.TID 0000.0001) // End MONITOR dynamic field statistics
(PID.TID 0000.0001) // =======================================================
(PID.TID 0000.0001) // =======================================================
(PID.TID 0000.0001) // Begin OBCS MONITOR field statistics
(PID.TID 0000.0001) // =======================================================
(PID.TID 0000.0001) %MON obc_N_vVel_max               =   1.5916240876632E-05
(PID.TID 0000.0001) %MON obc_N_vVel_min               =   1.5916240876631E-05
(PID.TID 0000.0001) %MON obc_N_vVel_mean              =   1.5916240876632E-05
(PID.TID 0000.0001) %MON obc_N_vVel_sd                =  -1.4527359507963E-23
(PID.TID 0000.0001) %MON obc_N_vVel_Int               =   1.0504718978577E+03
(PID.TID 0000.0001) // =======================================================
(PID.TID 0000.0001) // End OBCS MONITOR field statistics
(PID.TID 0000.0001) // =======================================================
 cg2d: Sum(rhs),rhsMax =   4.52200321852720E+00  2.99870497842769E+02
(PID.TID 0000.0001)      cg2d_init_res =   8.19391939144096E-06
(PID.TID 0000.0001)      cg2d_iters(min,last) =      -1      74
(PID.TID 0000.0001)      cg2d_last_res =   8.06935284000983E-12
(PID.TID 0000.0001) // =======================================================
(PID.TID 0000.0001) // Begin MONITOR dynamic field statistics
(PID.TID 0000.0001) // =======================================================
(PID.TID 0000.0001) %MON time_tsnumber                =                   212
(PID.TID 0000.0001) %MON time_secondsf                =   2.1200000000000E+04
(PID.TID 0000.0001) %MON dynstat_eta_max              =   5.7947839352923E+00
(PID.TID 0000.0001) %MON dynstat_eta_min              =  -1.4198762485625E+01
(PID.TID 0000.0001) %MON dynstat_eta_mean             =  -2.5111395488636E+00
(PID.TID 0000.0001) %MON dynstat_eta_sd               =   4.9524381523956E+00
(PID.TID 0000.0001) %MON dynstat_eta_del2             =   2.0714018201323E-01
(PID.TID 0000.0001) %MON dynstat_uvel_max             =   2.6799902085273E-03
(PID.TID 0000.0001) %MON dynstat_uvel_min             =  -3.0183478299257E-03
(PID.TID 0000.0001) %MON dynstat_uvel_mean            =  -9.2835315464665E-08
(PID.TID 0000.0001) %MON dynstat_uvel_sd              =   8.8807080863940E-05
(PID.TID 0000.0001) %MON dynstat_uvel_del2            =   3.7159845840631E-07
(PID.TID 0000.0001) %MON dynstat_vvel_max             =   3.9827697227288E-03
(PID.TID 0000.0001) %MON dynstat_vvel_min             =  -3.1334598730561E-03
(PID.TID 0000.0001) %MON dynstat_vvel_mean            =   1.5563273848452E-05
(PID.TID 0000.0001) %MON dynstat_vvel_sd              =   1.3499898542629E-04
(PID.TID 0000.0001) %MON dynstat_vvel_del2            =   5.6306837093698E-07
(PID.TID 0000.0001) %MON dynstat_wvel_max             =   2.4732608397187E-04
(PID.TID 0000.0001) %MON dynstat_wvel_min             =  -2.5800764836917E-04
(PID.TID 0000.0001) %MON dynstat_wvel_mean            =   3.8773444573983E-09
(PID.TID 0000.0001) %MON dynstat_wvel_sd              =   4.1564903053621E-05
(PID.TID 0000.0001) %MON dynstat_wvel_del2            =   2.1559909561769E-07
(PID.TID 0000.0001) %MON dynstat_theta_max            =   1.2000000000000E+00
(PID.TID 0000.0001) %MON dynstat_theta_min            =  -1.0000000000000E+00
(PID.TID 0000.0001) %MON dynstat_theta_mean           =   5.6910349438672E-01
(PID.TID 0000.0001) %MON dynstat_theta_sd             =   8.6858373995462E-01
(PID.TID 0000.0001) %MON dynstat_theta_del2           =   1.5912838956099E-06
(PID.TID 0000.0001) %MON dynstat_salt_max             =   3.4700000000000E+01
(PID.TID 0000.0001) %MON dynstat_salt_min             =   3.4000000000000E+01
(PID.TID 0000.0001) %MON dynstat_salt_mean            =   3.4499255546529E+01
(PID.TID 0000.0001) %MON dynstat_salt_sd              =   2.7636634848498E-01
(PID.TID 0000.0001) %MON dynstat_salt_del2            =   5.0988411830625E-07
(PID.TID 0000.0001) %MON advcfl_uvel_max              =   3.0183478299257E-04
(PID.TID 0000.0001) %MON advcfl_vvel_max              =   3.9827697227288E-04
(PID.TID 0000.0001) %MON advcfl_wvel_max              =   1.2900382418459E-03
(PID.TID 0000.0001) %MON advcfl_W_hf_max              =   1.2900382418459E-03
(PID.TID 0000.0001) %MON pe_b_mean                    =  -8.3190078593274E-01
(PID.TID 0000.0001) %MON ke_max                       =   6.2512186426583E-06
(PID.TID 0000.0001) %MON ke_mean                      =   1.3096952353832E-08
(PID.TID 0000.0001) %MON ke_vol                       =   4.2725439207083E+12
(PID.TID 0000.0001) // =======================================================
(PID.TID 0000.0001) // End MONITOR dynamic field statistics
(PID.TID 0000.0001) // =======================================================
(PID.TID 0000.0001) // =======================================================
(PID.TID 0000.0001) // Begin OBCS MONITOR field statistics
(PID.TID 0000.0001) // =======================================================
(PID.TID 0000.0001) %MON obc_N_vVel_max               =   1.5559806237471E-05
(PID.TID 0000.0001) %MON obc_N_vVel_min               =   1.5559806237471E-05
(PID.TID 0000.0001) %MON obc_N_vVel_mean              =   1.5559806237471E-05
(PID.TID 0000.0001) %MON obc_N_vVel_sd                =  -6.7208424769933E-24
(PID.TID 0000.0001) %MON obc_N_vVel_Int               =   1.0269472116731E+03
(PID.TID 0000.0001) // =======================================================
(PID.TID 0000.0001) // End OBCS MONITOR field statistics
(PID.TID 0000.0001) // =======================================================
 cg2d: Sum(rhs),rhsMax =   4.52202860616333E+00  2.99870568983322E+02
(PID.TID 0000.0001)      cg2d_init_res =   8.17528115709543E-06
(PID.TID 0000.0001)      cg2d_iters(min,last) =      -1      74
(PID.TID 0000.0001)      cg2d_last_res =   8.06167597966201E-12
(PID.TID 0000.0001) // =======================================================
(PID.TID 0000.0001) // Begin MONITOR dynamic field statistics
(PID.TID 0000.0001) // =======================================================
(PID.TID 0000.0001) %MON time_tsnumber                =                   213
(PID.TID 0000.0001) %MON time_secondsf                =   2.1300000000000E+04
(PID.TID 0000.0001) %MON dynstat_eta_max              =   5.7947584500095E+00
(PID.TID 0000.0001) %MON dynstat_eta_min              =  -1.4198796332010E+01
(PID.TID 0000.0001) %MON dynstat_eta_mean             =  -2.5111542427575E+00
(PID.TID 0000.0001) %MON dynstat_eta_sd               =   4.9524426495033E+00
(PID.TID 0000.0001) %MON dynstat_eta_del2             =   2.0714018393424E-01
(PID.TID 0000.0001) %MON dynstat_uvel_max             =   2.6772364374459E-03
(PID.TID 0000.0001) %MON dynstat_uvel_min             =  -3.0205270907899E-03
(PID.TID 0000.0001) %MON dynstat_uvel_mean            =  -9.3526927090074E-08
(PID.TID 0000.0001) %MON dynstat_uvel_sd              =   8.9019329085031E-05
(PID.TID 0000.0001) %MON dynstat_uvel_del2            =   3.7092806386170E-07
(PID.TID 0000.0001) %MON dynstat_vvel_max             =   3.9904167526501E-03
(PID.TID 0000.0001) %MON dynstat_vvel_min             =  -3.1377436345164E-03
(PID.TID 0000.0001) %MON dynstat_vvel_mean            =   1.5152566082682E-05
(PID.TID 0000.0001) %MON dynstat_vvel_sd              =   1.3506617660391E-04
(PID.TID 0000.0001) %MON dynstat_vvel_del2            =   5.6230365854194E-07
(PID.TID 0000.0001) %MON dynstat_wvel_max             =   2.4281918398197E-04
(PID.TID 0000.0001) %MON dynstat_wvel_min             =  -2.4987887222437E-04
(PID.TID 0000.0001) %MON dynstat_wvel_mean            =   3.4023579718277E-09
(PID.TID 0000.0001) %MON dynstat_wvel_sd              =   4.1520230590281E-05
(PID.TID 0000.0001) %MON dynstat_wvel_del2            =   2.1566808409582E-07
(PID.TID 0000.0001) %MON dynstat_theta_max            =   1.2000000000000E+00
(PID.TID 0000.0001) %MON dynstat_theta_min            =  -1.0000000000000E+00
(PID.TID 0000.0001) %MON dynstat_theta_mean           =   5.6910323729263E-01
(PID.TID 0000.0001) %MON dynstat_theta_sd             =   8.6858360543251E-01
(PID.TID 0000.0001) %MON dynstat_theta_del2           =   1.5846567412453E-06
(PID.TID 0000.0001) %MON dynstat_salt_max             =   3.4700000000000E+01
(PID.TID 0000.0001) %MON dynstat_salt_min             =   3.4000000000000E+01
(PID.TID 0000.0001) %MON dynstat_salt_mean            =   3.4499255443590E+01
(PID.TID 0000.0001) %MON dynstat_salt_sd              =   2.7636629996906E-01
(PID.TID 0000.0001) %MON dynstat_salt_del2            =   5.0788418350541E-07
(PID.TID 0000.0001) %MON advcfl_uvel_max              =   3.0205270907899E-04
(PID.TID 0000.0001) %MON advcfl_vvel_max              =   3.9904167526501E-04
(PID.TID 0000.0001) %MON advcfl_wvel_max              =   1.2493943611218E-03
(PID.TID 0000.0001) %MON advcfl_W_hf_max              =   1.2493943611218E-03
(PID.TID 0000.0001) %MON pe_b_mean                    =  -8.3190490239054E-01
(PID.TID 0000.0001) %MON ke_max                       =   6.2585811443391E-06
(PID.TID 0000.0001) %MON ke_mean                      =   1.3118257578351E-08
(PID.TID 0000.0001) %MON ke_vol                       =   4.2725438310798E+12
(PID.TID 0000.0001) // =======================================================
(PID.TID 0000.0001) // End MONITOR dynamic field statistics
(PID.TID 0000.0001) // =======================================================
(PID.TID 0000.0001) // =======================================================
(PID.TID 0000.0001) // Begin OBCS MONITOR field statistics
(PID.TID 0000.0001) // =======================================================
(PID.TID 0000.0001) %MON obc_N_vVel_max               =   1.5204341488948E-05
(PID.TID 0000.0001) %MON obc_N_vVel_min               =   1.5204341488948E-05
(PID.TID 0000.0001) %MON obc_N_vVel_mean              =   1.5204341488948E-05
(PID.TID 0000.0001) %MON obc_N_vVel_sd                =   3.8787043443408E-12
(PID.TID 0000.0001) %MON obc_N_vVel_Int               =   1.0034865382706E+03
(PID.TID 0000.0001) // =======================================================
(PID.TID 0000.0001) // End OBCS MONITOR field statistics
(PID.TID 0000.0001) // =======================================================
 cg2d: Sum(rhs),rhsMax =   4.52205330428268E+00  2.99870640007016E+02
(PID.TID 0000.0001)      cg2d_init_res =   8.15358712360095E-06
(PID.TID 0000.0001)      cg2d_iters(min,last) =      -1      74
(PID.TID 0000.0001)      cg2d_last_res =   8.10208833337464E-12
(PID.TID 0000.0001) // =======================================================
(PID.TID 0000.0001) // Begin MONITOR dynamic field statistics
(PID.TID 0000.0001) // =======================================================
(PID.TID 0000.0001) %MON time_tsnumber                =                   214
(PID.TID 0000.0001) %MON time_secondsf                =   2.1400000000000E+04
(PID.TID 0000.0001) %MON dynstat_eta_max              =   5.7947335318486E+00
(PID.TID 0000.0001) %MON dynstat_eta_min              =  -1.4198829813944E+01
(PID.TID 0000.0001) %MON dynstat_eta_mean             =  -2.5111685527798E+00
(PID.TID 0000.0001) %MON dynstat_eta_sd               =   4.9524470364599E+00
(PID.TID 0000.0001) %MON dynstat_eta_del2             =   2.0714018584928E-01
(PID.TID 0000.0001) %MON dynstat_uvel_max             =   2.6743363523849E-03
(PID.TID 0000.0001) %MON dynstat_uvel_min             =  -3.0225875065142E-03
(PID.TID 0000.0001) %MON dynstat_uvel_mean            =  -9.4726079464156E-08
(PID.TID 0000.0001) %MON dynstat_uvel_sd              =   8.9233143691407E-05
(PID.TID 0000.0001) %MON dynstat_uvel_del2            =   3.7025580784555E-07
(PID.TID 0000.0001) %MON dynstat_vvel_max             =   3.9979553052465E-03
(PID.TID 0000.0001) %MON dynstat_vvel_min             =  -3.1418693184539E-03
(PID.TID 0000.0001) %MON dynstat_vvel_mean            =   1.4762839367857E-05
(PID.TID 0000.0001) %MON dynstat_vvel_sd              =   1.3512935426509E-04
(PID.TID 0000.0001) %MON dynstat_vvel_del2            =   5.6142463275625E-07
(PID.TID 0000.0001) %MON dynstat_wvel_max             =   2.3454800426403E-04
(PID.TID 0000.0001) %MON dynstat_wvel_min             =  -2.3710713012652E-04
(PID.TID 0000.0001) %MON dynstat_wvel_mean            =   3.0397297409589E-09
(PID.TID 0000.0001) %MON dynstat_wvel_sd              =   4.1467158419983E-05
(PID.TID 0000.0001) %MON dynstat_wvel_del2            =   2.1559603451760E-07
(PID.TID 0000.0001) %MON dynstat_theta_max            =   1.2000000000000E+00
(PID.TID 0000.0001) %MON dynstat_theta_min            =  -1.0000000000000E+00
(PID.TID 0000.0001) %MON dynstat_theta_mean           =   5.6910298002801E-01
(PID.TID 0000.0001) %MON dynstat_theta_sd             =   8.6858347091571E-01
(PID.TID 0000.0001) %MON dynstat_theta_del2           =   1.5782219361082E-06
(PID.TID 0000.0001) %MON dynstat_salt_max             =   3.4700000000000E+01
(PID.TID 0000.0001) %MON dynstat_salt_min             =   3.4000000000000E+01
(PID.TID 0000.0001) %MON dynstat_salt_mean            =   3.4499255340596E+01
(PID.TID 0000.0001) %MON dynstat_salt_sd              =   2.7636625145416E-01
(PID.TID 0000.0001) %MON dynstat_salt_del2            =   5.0594627421416E-07
(PID.TID 0000.0001) %MON advcfl_uvel_max              =   3.0225875065142E-04
(PID.TID 0000.0001) %MON advcfl_vvel_max              =   3.9979553052465E-04
(PID.TID 0000.0001) %MON advcfl_wvel_max              =   1.1855356506326E-03
(PID.TID 0000.0001) %MON advcfl_W_hf_max              =   1.1855356506326E-03
(PID.TID 0000.0001) %MON pe_b_mean                    =  -8.3190892222874E-01
(PID.TID 0000.0001) %MON ke_max                       =   6.2874556148119E-06
(PID.TID 0000.0001) %MON ke_mean                      =   1.3139682244513E-08
(PID.TID 0000.0001) %MON ke_vol                       =   4.2725437437980E+12
(PID.TID 0000.0001) // =======================================================
(PID.TID 0000.0001) // End MONITOR dynamic field statistics
(PID.TID 0000.0001) // =======================================================
(PID.TID 0000.0001) // =======================================================
(PID.TID 0000.0001) // Begin OBCS MONITOR field statistics
(PID.TID 0000.0001) // =======================================================
(PID.TID 0000.0001) %MON obc_N_vVel_max               =   1.4858976772520E-05
(PID.TID 0000.0001) %MON obc_N_vVel_min               =   1.4858976772519E-05
(PID.TID 0000.0001) %MON obc_N_vVel_mean              =   1.4858976772519E-05
(PID.TID 0000.0001) %MON obc_N_vVel_sd                =   3.0505379675102E-12
(PID.TID 0000.0001) %MON obc_N_vVel_Int               =   9.8069246698626E+02
(PID.TID 0000.0001) // =======================================================
(PID.TID 0000.0001) // End OBCS MONITOR field statistics
(PID.TID 0000.0001) // =======================================================
 cg2d: Sum(rhs),rhsMax =   4.52207734933909E+00  2.99870710933536E+02
(PID.TID 0000.0001)      cg2d_init_res =   8.12788215914504E-06
(PID.TID 0000.0001)      cg2d_iters(min,last) =      -1      74
(PID.TID 0000.0001)      cg2d_last_res =   8.19557243397849E-12
(PID.TID 0000.0001) // =======================================================
(PID.TID 0000.0001) // Begin MONITOR dynamic field statistics
(PID.TID 0000.0001) // =======================================================
(PID.TID 0000.0001) %MON time_tsnumber                =                   215
(PID.TID 0000.0001) %MON time_secondsf                =   2.1500000000000E+04
(PID.TID 0000.0001) %MON dynstat_eta_max              =   5.7947091386288E+00
(PID.TID 0000.0001) %MON dynstat_eta_min              =  -1.4198862946350E+01
(PID.TID 0000.0001) %MON dynstat_eta_mean             =  -2.5111824993384E+00
(PID.TID 0000.0001) %MON dynstat_eta_sd               =   4.9524513267897E+00
(PID.TID 0000.0001) %MON dynstat_eta_del2             =   2.0714018775800E-01
(PID.TID 0000.0001) %MON dynstat_uvel_max             =   2.6712911202296E-03
(PID.TID 0000.0001) %MON dynstat_uvel_min             =  -3.0245297427669E-03
(PID.TID 0000.0001) %MON dynstat_uvel_mean            =  -9.6367968622788E-08
(PID.TID 0000.0001) %MON dynstat_uvel_sd              =   8.9448549892278E-05
(PID.TID 0000.0001) %MON dynstat_uvel_del2            =   3.6958182542787E-07
(PID.TID 0000.0001) %MON dynstat_vvel_max             =   4.0053959446880E-03
(PID.TID 0000.0001) %MON dynstat_vvel_min             =  -3.1458273968346E-03
(PID.TID 0000.0001) %MON dynstat_vvel_mean            =   1.4402785862598E-05
(PID.TID 0000.0001) %MON dynstat_vvel_sd              =   1.3518573528955E-04
(PID.TID 0000.0001) %MON dynstat_vvel_del2            =   5.6038279785575E-07
(PID.TID 0000.0001) %MON dynstat_wvel_max             =   2.2260370443805E-04
(PID.TID 0000.0001) %MON dynstat_wvel_min             =  -2.1994993855139E-04
(PID.TID 0000.0001) %MON dynstat_wvel_mean            =   2.7914025829787E-09
(PID.TID 0000.0001) %MON dynstat_wvel_sd              =   4.1401314597274E-05
(PID.TID 0000.0001) %MON dynstat_wvel_del2            =   2.1532581174754E-07
(PID.TID 0000.0001) %MON dynstat_theta_max            =   1.2000000000000E+00
(PID.TID 0000.0001) %MON dynstat_theta_min            =  -1.0000000000000E+00
(PID.TID 0000.0001) %MON dynstat_theta_mean           =   5.6910272260262E-01
(PID.TID 0000.0001) %MON dynstat_theta_sd             =   8.6858333646827E-01
(PID.TID 0000.0001) %MON dynstat_theta_del2           =   1.5720199476323E-06
(PID.TID 0000.0001) %MON dynstat_salt_max             =   3.4700000000000E+01
(PID.TID 0000.0001) %MON dynstat_salt_min             =   3.4000000000000E+01
(PID.TID 0000.0001) %MON dynstat_salt_mean            =   3.4499255237549E+01
(PID.TID 0000.0001) %MON dynstat_salt_sd              =   2.7636620296061E-01
(PID.TID 0000.0001) %MON dynstat_salt_del2            =   5.0408311290543E-07
(PID.TID 0000.0001) %MON advcfl_uvel_max              =   3.0245297427669E-04
(PID.TID 0000.0001) %MON advcfl_vvel_max              =   4.0053959446880E-04
(PID.TID 0000.0001) %MON advcfl_wvel_max              =   1.1130185221902E-03
(PID.TID 0000.0001) %MON advcfl_W_hf_max              =   1.1130185221902E-03
(PID.TID 0000.0001) %MON pe_b_mean                    =  -8.3191285334970E-01
(PID.TID 0000.0001) %MON ke_max                       =   6.3239953508107E-06
(PID.TID 0000.0001) %MON ke_mean                      =   1.3160952340631E-08
(PID.TID 0000.0001) %MON ke_vol                       =   4.2725436587965E+12
(PID.TID 0000.0001) // =======================================================
(PID.TID 0000.0001) // End MONITOR dynamic field statistics
(PID.TID 0000.0001) // =======================================================
(PID.TID 0000.0001) // =======================================================
(PID.TID 0000.0001) // Begin OBCS MONITOR field statistics
(PID.TID 0000.0001) // =======================================================
(PID.TID 0000.0001) %MON obc_N_vVel_max               =   1.4531980460402E-05
(PID.TID 0000.0001) %MON obc_N_vVel_min               =   1.4531980460402E-05
(PID.TID 0000.0001) %MON obc_N_vVel_mean              =   1.4531980460402E-05
(PID.TID 0000.0001) %MON obc_N_vVel_sd                =   3.3494233918319E-12
(PID.TID 0000.0001) %MON obc_N_vVel_Int               =   9.5911071038650E+02
(PID.TID 0000.0001) // =======================================================
(PID.TID 0000.0001) // End OBCS MONITOR field statistics
(PID.TID 0000.0001) // =======================================================
 cg2d: Sum(rhs),rhsMax =   4.52210079218827E+00  2.99870781789352E+02
(PID.TID 0000.0001)      cg2d_init_res =   8.09775661577902E-06
(PID.TID 0000.0001)      cg2d_iters(min,last) =      -1      74
(PID.TID 0000.0001)      cg2d_last_res =   8.33219805606281E-12
(PID.TID 0000.0001) // =======================================================
(PID.TID 0000.0001) // Begin MONITOR dynamic field statistics
(PID.TID 0000.0001) // =======================================================
(PID.TID 0000.0001) %MON time_tsnumber                =                   216
(PID.TID 0000.0001) %MON time_secondsf                =   2.1600000000000E+04
(PID.TID 0000.0001) %MON dynstat_eta_max              =   5.7946852176320E+00
(PID.TID 0000.0001) %MON dynstat_eta_min              =  -1.4198895752299E+01
(PID.TID 0000.0001) %MON dynstat_eta_mean             =  -2.5111961108958E+00
(PID.TID 0000.0001) %MON dynstat_eta_sd               =   4.9524555356362E+00
(PID.TID 0000.0001) %MON dynstat_eta_del2             =   2.0714018966065E-01
(PID.TID 0000.0001) %MON dynstat_uvel_max             =   2.6681019033674E-03
(PID.TID 0000.0001) %MON dynstat_uvel_min             =  -3.0263544609888E-03
(PID.TID 0000.0001) %MON dynstat_uvel_mean            =  -9.8381432961483E-08
(PID.TID 0000.0001) %MON dynstat_uvel_sd              =   8.9665579248884E-05
(PID.TID 0000.0001) %MON dynstat_uvel_del2            =   3.6890625119374E-07
(PID.TID 0000.0001) %MON dynstat_vvel_max             =   4.0127474158691E-03
(PID.TID 0000.0001) %MON dynstat_vvel_min             =  -3.1496101464992E-03
(PID.TID 0000.0001) %MON dynstat_vvel_mean            =   1.4079759475347E-05
(PID.TID 0000.0001) %MON dynstat_vvel_sd              =   1.3523370998078E-04
(PID.TID 0000.0001) %MON dynstat_vvel_del2            =   5.5915296279555E-07
(PID.TID 0000.0001) %MON dynstat_wvel_max             =   2.2180537276611E-04
(PID.TID 0000.0001) %MON dynstat_wvel_min             =  -2.0785444681887E-04
(PID.TID 0000.0001) %MON dynstat_wvel_mean            =   2.6562425146886E-09
(PID.TID 0000.0001) %MON dynstat_wvel_sd              =   4.1320168585014E-05
(PID.TID 0000.0001) %MON dynstat_wvel_del2            =   2.1482776127856E-07
(PID.TID 0000.0001) %MON dynstat_theta_max            =   1.2000000000000E+00
(PID.TID 0000.0001) %MON dynstat_theta_min            =  -1.0000000000000E+00
(PID.TID 0000.0001) %MON dynstat_theta_mean           =   5.6910246502916E-01
(PID.TID 0000.0001) %MON dynstat_theta_sd             =   8.6858320216051E-01
(PID.TID 0000.0001) %MON dynstat_theta_del2           =   1.5660675753158E-06
(PID.TID 0000.0001) %MON dynstat_salt_max             =   3.4700000000000E+01
(PID.TID 0000.0001) %MON dynstat_salt_min             =   3.4000000000000E+01
(PID.TID 0000.0001) %MON dynstat_salt_mean            =   3.4499255134453E+01
(PID.TID 0000.0001) %MON dynstat_salt_sd              =   2.7636615451071E-01
(PID.TID 0000.0001) %MON dynstat_salt_del2            =   5.0229998595994E-07
(PID.TID 0000.0001) %MON advcfl_uvel_max              =   3.0263544609888E-04
(PID.TID 0000.0001) %MON advcfl_vvel_max              =   4.0127474158691E-04
(PID.TID 0000.0001) %MON advcfl_wvel_max              =   1.1090268638306E-03
(PID.TID 0000.0001) %MON advcfl_W_hf_max              =   1.1090268638306E-03
(PID.TID 0000.0001) %MON pe_b_mean                    =  -8.3191670542840E-01
(PID.TID 0000.0001) %MON ke_max                       =   6.3604807431023E-06
(PID.TID 0000.0001) %MON ke_mean                      =   1.3181923625079E-08
(PID.TID 0000.0001) %MON ke_vol                       =   4.2725435759539E+12
(PID.TID 0000.0001) // =======================================================
(PID.TID 0000.0001) // End MONITOR dynamic field statistics
(PID.TID 0000.0001) // =======================================================
(PID.TID 0000.0001) // =======================================================
(PID.TID 0000.0001) // Begin OBCS MONITOR field statistics
(PID.TID 0000.0001) // =======================================================
(PID.TID 0000.0001) %MON obc_N_vVel_max               =   1.4230602805446E-05
(PID.TID 0000.0001) %MON obc_N_vVel_min               =   1.4230602805446E-05
(PID.TID 0000.0001) %MON obc_N_vVel_mean              =   1.4230602805446E-05
(PID.TID 0000.0001) %MON obc_N_vVel_sd                =   3.2315871075188E-12
(PID.TID 0000.0001) %MON obc_N_vVel_Int               =   9.3921978515946E+02
(PID.TID 0000.0001) // =======================================================
(PID.TID 0000.0001) // End OBCS MONITOR field statistics
(PID.TID 0000.0001) // =======================================================
 cg2d: Sum(rhs),rhsMax =   4.52212369581294E+00  2.99870852607467E+02
(PID.TID 0000.0001)      cg2d_init_res =   8.06338064045618E-06
(PID.TID 0000.0001)      cg2d_iters(min,last) =      -1      74
(PID.TID 0000.0001)      cg2d_last_res =   8.51693322894352E-12
(PID.TID 0000.0001) // =======================================================
(PID.TID 0000.0001) // Begin MONITOR dynamic field statistics
(PID.TID 0000.0001) // =======================================================
(PID.TID 0000.0001) %MON time_tsnumber                =                   217
(PID.TID 0000.0001) %MON time_secondsf                =   2.1700000000000E+04
(PID.TID 0000.0001) %MON dynstat_eta_max              =   5.7946617075961E+00
(PID.TID 0000.0001) %MON dynstat_eta_min              =  -1.4198928261893E+01
(PID.TID 0000.0001) %MON dynstat_eta_mean             =  -2.5112094227034E+00
(PID.TID 0000.0001) %MON dynstat_eta_sd               =   4.9524596792549E+00
(PID.TID 0000.0001) %MON dynstat_eta_del2             =   2.0714019155774E-01
(PID.TID 0000.0001) %MON dynstat_uvel_max             =   2.6647698571693E-03
(PID.TID 0000.0001) %MON dynstat_uvel_min             =  -3.0280623211887E-03
(PID.TID 0000.0001) %MON dynstat_uvel_mean            =  -1.0069121045620E-07
(PID.TID 0000.0001) %MON dynstat_uvel_sd              =   8.9884268852727E-05
(PID.TID 0000.0001) %MON dynstat_uvel_del2            =   3.6822921628573E-07
(PID.TID 0000.0001) %MON dynstat_vvel_max             =   4.0200165503634E-03
(PID.TID 0000.0001) %MON dynstat_vvel_min             =  -3.1532117416582E-03
(PID.TID 0000.0001) %MON dynstat_vvel_mean            =   1.3799676364636E-05
(PID.TID 0000.0001) %MON dynstat_vvel_sd              =   1.3527302050920E-04
(PID.TID 0000.0001) %MON dynstat_vvel_del2            =   5.5773576384789E-07
(PID.TID 0000.0001) %MON dynstat_wvel_max             =   2.2166257996664E-04
(PID.TID 0000.0001) %MON dynstat_wvel_min             =  -2.1218050629994E-04
(PID.TID 0000.0001) %MON dynstat_wvel_mean            =   2.6302808790209E-09
(PID.TID 0000.0001) %MON dynstat_wvel_sd              =   4.1223289660680E-05
(PID.TID 0000.0001) %MON dynstat_wvel_del2            =   2.1410229539737E-07
(PID.TID 0000.0001) %MON dynstat_theta_max            =   1.2000000000000E+00
(PID.TID 0000.0001) %MON dynstat_theta_min            =  -1.0000000000000E+00
(PID.TID 0000.0001) %MON dynstat_theta_mean           =   5.6910220732247E-01
(PID.TID 0000.0001) %MON dynstat_theta_sd             =   8.6858306795521E-01
(PID.TID 0000.0001) %MON dynstat_theta_del2           =   1.5603554908235E-06
(PID.TID 0000.0001) %MON dynstat_salt_max             =   3.4700000000000E+01
(PID.TID 0000.0001) %MON dynstat_salt_min             =   3.4000000000000E+01
(PID.TID 0000.0001) %MON dynstat_salt_mean            =   3.4499255031314E+01
(PID.TID 0000.0001) %MON dynstat_salt_sd              =   2.7636610609285E-01
(PID.TID 0000.0001) %MON dynstat_salt_del2            =   5.0059387416060E-07
(PID.TID 0000.0001) %MON advcfl_uvel_max              =   3.0280623211887E-04
(PID.TID 0000.0001) %MON advcfl_vvel_max              =   4.0200165503634E-04
(PID.TID 0000.0001) %MON advcfl_wvel_max              =   1.1083128998332E-03
(PID.TID 0000.0001) %MON advcfl_W_hf_max              =   1.1083128998332E-03
(PID.TID 0000.0001) %MON pe_b_mean                    =  -8.3192048954562E-01
(PID.TID 0000.0001) %MON ke_max                       =   6.3969296319145E-06
(PID.TID 0000.0001) %MON ke_mean                      =   1.3202609569258E-08
(PID.TID 0000.0001) %MON ke_vol                       =   4.2725434951013E+12
(PID.TID 0000.0001) // =======================================================
(PID.TID 0000.0001) // End MONITOR dynamic field statistics
(PID.TID 0000.0001) // =======================================================
(PID.TID 0000.0001) // =======================================================
(PID.TID 0000.0001) // Begin OBCS MONITOR field statistics
(PID.TID 0000.0001) // =======================================================
(PID.TID 0000.0001) %MON obc_N_vVel_max               =   1.3960957103592E-05
(PID.TID 0000.0001) %MON obc_N_vVel_min               =   1.3960957103591E-05
(PID.TID 0000.0001) %MON obc_N_vVel_mean              =   1.3960957103592E-05
(PID.TID 0000.0001) %MON obc_N_vVel_sd                =  -1.0985992510470E-23
(PID.TID 0000.0001) %MON obc_N_vVel_Int               =   9.2142316883705E+02
(PID.TID 0000.0001) // =======================================================
(PID.TID 0000.0001) // End OBCS MONITOR field statistics
(PID.TID 0000.0001) // =======================================================
 cg2d: Sum(rhs),rhsMax =   4.52214613289347E+00  2.99870923427357E+02
(PID.TID 0000.0001)      cg2d_init_res =   8.02554244388213E-06
(PID.TID 0000.0001)      cg2d_iters(min,last) =      -1      74
(PID.TID 0000.0001)      cg2d_last_res =   8.75830713068300E-12
(PID.TID 0000.0001) // =======================================================
(PID.TID 0000.0001) // Begin MONITOR dynamic field statistics
(PID.TID 0000.0001) // =======================================================
(PID.TID 0000.0001) %MON time_tsnumber                =                   218
(PID.TID 0000.0001) %MON time_secondsf                =   2.1800000000000E+04
(PID.TID 0000.0001) %MON dynstat_eta_max              =   5.7946385408128E+00
(PID.TID 0000.0001) %MON dynstat_eta_min              =  -1.4198960510977E+01
(PID.TID 0000.0001) %MON dynstat_eta_mean             =  -2.5112224754523E+00
(PID.TID 0000.0001) %MON dynstat_eta_sd               =   4.9524637745224E+00
(PID.TID 0000.0001) %MON dynstat_eta_del2             =   2.0714019344939E-01
(PID.TID 0000.0001) %MON dynstat_uvel_max             =   2.6612961271688E-03
(PID.TID 0000.0001) %MON dynstat_uvel_min             =  -3.0296539832726E-03
(PID.TID 0000.0001) %MON dynstat_uvel_mean            =  -1.0321991634245E-07
(PID.TID 0000.0001) %MON dynstat_uvel_sd              =   9.0104660469766E-05
(PID.TID 0000.0001) %MON dynstat_uvel_del2            =   3.6755084751215E-07
(PID.TID 0000.0001) %MON dynstat_vvel_max             =   4.0272082283668E-03
(PID.TID 0000.0001) %MON dynstat_vvel_min             =  -3.1566282908422E-03
(PID.TID 0000.0001) %MON dynstat_vvel_mean            =   1.3566959217353E-05
(PID.TID 0000.0001) %MON dynstat_vvel_sd              =   1.3530475707145E-04
(PID.TID 0000.0001) %MON dynstat_vvel_del2            =   5.5615682713875E-07
(PID.TID 0000.0001) %MON dynstat_wvel_max             =   2.2532898819124E-04
(PID.TID 0000.0001) %MON dynstat_wvel_min             =  -2.1459974702872E-04
(PID.TID 0000.0001) %MON dynstat_wvel_mean            =   2.7070071389956E-09
(PID.TID 0000.0001) %MON dynstat_wvel_sd              =   4.1112333212180E-05
(PID.TID 0000.0001) %MON dynstat_wvel_del2            =   2.1317881554567E-07
(PID.TID 0000.0001) %MON dynstat_theta_max            =   1.2000000000000E+00
(PID.TID 0000.0001) %MON dynstat_theta_min            =  -1.0000000000000E+00
(PID.TID 0000.0001) %MON dynstat_theta_mean           =   5.6910194949944E-01
(PID.TID 0000.0001) %MON dynstat_theta_sd             =   8.6858293376793E-01
(PID.TID 0000.0001) %MON dynstat_theta_del2           =   1.5548500974751E-06
(PID.TID 0000.0001) %MON dynstat_salt_max             =   3.4700000000000E+01
(PID.TID 0000.0001) %MON dynstat_salt_min             =   3.4000000000000E+01
(PID.TID 0000.0001) %MON dynstat_salt_mean            =   3.4499254928136E+01
(PID.TID 0000.0001) %MON dynstat_salt_sd              =   2.7636605768000E-01
(PID.TID 0000.0001) %MON dynstat_salt_del2            =   4.9895408572078E-07
(PID.TID 0000.0001) %MON advcfl_uvel_max              =   3.0296539832726E-04
(PID.TID 0000.0001) %MON advcfl_vvel_max              =   4.0272082283668E-04
(PID.TID 0000.0001) %MON advcfl_wvel_max              =   1.1266449409562E-03
(PID.TID 0000.0001) %MON advcfl_W_hf_max              =   1.1266449409562E-03
(PID.TID 0000.0001) %MON pe_b_mean                    =  -8.3192421781162E-01
(PID.TID 0000.0001) %MON ke_max                       =   6.4333542068874E-06
(PID.TID 0000.0001) %MON ke_mean                      =   1.3223184984689E-08
(PID.TID 0000.0001) %MON ke_vol                       =   4.2725434160291E+12
(PID.TID 0000.0001) // =======================================================
(PID.TID 0000.0001) // End MONITOR dynamic field statistics
(PID.TID 0000.0001) // =======================================================
(PID.TID 0000.0001) // =======================================================
(PID.TID 0000.0001) // Begin OBCS MONITOR field statistics
(PID.TID 0000.0001) // =======================================================
(PID.TID 0000.0001) %MON obc_N_vVel_max               =   1.3727938333565E-05
(PID.TID 0000.0001) %MON obc_N_vVel_min               =   1.3727938333565E-05
(PID.TID 0000.0001) %MON obc_N_vVel_mean              =   1.3727938333565E-05
(PID.TID 0000.0001) %MON obc_N_vVel_sd                =   3.2910326868046E-12
(PID.TID 0000.0001) %MON obc_N_vVel_Int               =   9.0604393001531E+02
(PID.TID 0000.0001) // =======================================================
(PID.TID 0000.0001) // End OBCS MONITOR field statistics
(PID.TID 0000.0001) // =======================================================
 cg2d: Sum(rhs),rhsMax =   4.52216818329833E+00  2.99870994293968E+02
(PID.TID 0000.0001)      cg2d_init_res =   7.98561828451727E-06
(PID.TID 0000.0001)      cg2d_iters(min,last) =      -1      74
(PID.TID 0000.0001)      cg2d_last_res =   9.03344112119905E-12
(PID.TID 0000.0001) // =======================================================
(PID.TID 0000.0001) // Begin MONITOR dynamic field statistics
(PID.TID 0000.0001) // =======================================================
(PID.TID 0000.0001) %MON time_tsnumber                =                   219
(PID.TID 0000.0001) %MON time_secondsf                =   2.1900000000000E+04
(PID.TID 0000.0001) %MON dynstat_eta_max              =   5.7946156453027E+00
(PID.TID 0000.0001) %MON dynstat_eta_min              =  -1.4198992539925E+01
(PID.TID 0000.0001) %MON dynstat_eta_mean             =  -2.5112353138708E+00
(PID.TID 0000.0001) %MON dynstat_eta_sd               =   4.9524678384797E+00
(PID.TID 0000.0001) %MON dynstat_eta_del2             =   2.0714019533666E-01
(PID.TID 0000.0001) %MON dynstat_uvel_max             =   2.6576818473245E-03
(PID.TID 0000.0001) %MON dynstat_uvel_min             =  -3.0311301092141E-03
(PID.TID 0000.0001) %MON dynstat_uvel_mean            =  -1.0588997327571E-07
(PID.TID 0000.0001) %MON dynstat_uvel_sd              =   9.0326799551384E-05
(PID.TID 0000.0001) %MON dynstat_uvel_del2            =   3.6687126662729E-07
(PID.TID 0000.0001) %MON dynstat_vvel_max             =   4.0343253927357E-03
(PID.TID 0000.0001) %MON dynstat_vvel_min             =  -3.1598578222916E-03
(PID.TID 0000.0001) %MON dynstat_vvel_mean            =   1.3384523573926E-05
(PID.TID 0000.0001) %MON dynstat_vvel_sd              =   1.3533117758176E-04
(PID.TID 0000.0001) %MON dynstat_vvel_del2            =   5.5446275003634E-07
(PID.TID 0000.0001) %MON dynstat_wvel_max             =   2.2643756248834E-04
(PID.TID 0000.0001) %MON dynstat_wvel_min             =  -2.2071623730532E-04
(PID.TID 0000.0001) %MON dynstat_wvel_mean            =   2.8777096919889E-09
(PID.TID 0000.0001) %MON dynstat_wvel_sd              =   4.0990762532589E-05
(PID.TID 0000.0001) %MON dynstat_wvel_del2            =   2.1211120158777E-07
(PID.TID 0000.0001) %MON dynstat_theta_max            =   1.2000000000000E+00
(PID.TID 0000.0001) %MON dynstat_theta_min            =  -1.0000000000000E+00
(PID.TID 0000.0001) %MON dynstat_theta_mean           =   5.6910169157858E-01
(PID.TID 0000.0001) %MON dynstat_theta_sd             =   8.6858279964420E-01
(PID.TID 0000.0001) %MON dynstat_theta_del2           =   1.5494965669353E-06
(PID.TID 0000.0001) %MON dynstat_salt_max             =   3.4700000000000E+01
(PID.TID 0000.0001) %MON dynstat_salt_min             =   3.4000000000000E+01
(PID.TID 0000.0001) %MON dynstat_salt_mean            =   3.4499254824926E+01
(PID.TID 0000.0001) %MON dynstat_salt_sd              =   2.7636600928670E-01
(PID.TID 0000.0001) %MON dynstat_salt_del2            =   4.9736323084484E-07
(PID.TID 0000.0001) %MON advcfl_uvel_max              =   3.0311301092141E-04
(PID.TID 0000.0001) %MON advcfl_vvel_max              =   4.0343253927357E-04
(PID.TID 0000.0001) %MON advcfl_wvel_max              =   1.1321878124417E-03
(PID.TID 0000.0001) %MON advcfl_W_hf_max              =   1.1321878124417E-03
(PID.TID 0000.0001) %MON pe_b_mean                    =  -8.3192790298889E-01
(PID.TID 0000.0001) %MON ke_max                       =   6.4697609907658E-06
(PID.TID 0000.0001) %MON ke_mean                      =   1.3243965574915E-08
(PID.TID 0000.0001) %MON ke_vol                       =   4.2725433384958E+12
(PID.TID 0000.0001) // =======================================================
(PID.TID 0000.0001) // End MONITOR dynamic field statistics
(PID.TID 0000.0001) // =======================================================
(PID.TID 0000.0001) // =======================================================
(PID.TID 0000.0001) // Begin OBCS MONITOR field statistics
(PID.TID 0000.0001) // =======================================================
(PID.TID 0000.0001) %MON obc_N_vVel_max               =   1.3535178669239E-05
(PID.TID 0000.0001) %MON obc_N_vVel_min               =   1.3535178669239E-05
(PID.TID 0000.0001) %MON obc_N_vVel_mean              =   1.3535178669239E-05
(PID.TID 0000.0001) %MON obc_N_vVel_sd                =   3.5770728396875E-12
(PID.TID 0000.0001) %MON obc_N_vVel_Int               =   8.9332179216977E+02
(PID.TID 0000.0001) // =======================================================
(PID.TID 0000.0001) // End OBCS MONITOR field statistics
(PID.TID 0000.0001) // =======================================================
 cg2d: Sum(rhs),rhsMax =   4.52218993155585E+00  2.99871065256781E+02
(PID.TID 0000.0001)      cg2d_init_res =   7.94547098006273E-06
(PID.TID 0000.0001)      cg2d_iters(min,last) =      -1      74
(PID.TID 0000.0001)      cg2d_last_res =   9.33925484214244E-12
(PID.TID 0000.0001) // =======================================================
(PID.TID 0000.0001) // Begin MONITOR dynamic field statistics
(PID.TID 0000.0001) // =======================================================
(PID.TID 0000.0001) %MON time_tsnumber                =                   220
(PID.TID 0000.0001) %MON time_secondsf                =   2.2000000000000E+04
(PID.TID 0000.0001) %MON dynstat_eta_max              =   5.7945929469481E+00
(PID.TID 0000.0001) %MON dynstat_eta_min              =  -1.4199024392340E+01
(PID.TID 0000.0001) %MON dynstat_eta_mean             =  -2.5112479853132E+00
(PID.TID 0000.0001) %MON dynstat_eta_sd               =   4.9524718878761E+00
(PID.TID 0000.0001) %MON dynstat_eta_del2             =   2.0714019722059E-01
(PID.TID 0000.0001) %MON dynstat_uvel_max             =   2.6539281384430E-03
(PID.TID 0000.0001) %MON dynstat_uvel_min             =  -3.0324913648236E-03
(PID.TID 0000.0001) %MON dynstat_uvel_mean            =  -1.0862537971950E-07
(PID.TID 0000.0001) %MON dynstat_uvel_sd              =   9.0550734181602E-05
(PID.TID 0000.0001) %MON dynstat_uvel_del2            =   3.6619058970094E-07
(PID.TID 0000.0001) %MON dynstat_vvel_max             =   4.0413691117198E-03
(PID.TID 0000.0001) %MON dynstat_vvel_min             =  -3.1629002204827E-03
(PID.TID 0000.0001) %MON dynstat_vvel_mean            =   1.3253803812700E-05
(PID.TID 0000.0001) %MON dynstat_vvel_sd              =   1.3535537600202E-04
(PID.TID 0000.0001) %MON dynstat_vvel_del2            =   5.5271447385992E-07
(PID.TID 0000.0001) %MON dynstat_wvel_max             =   2.2958428245515E-04
(PID.TID 0000.0001) %MON dynstat_wvel_min             =  -2.2701129981689E-04
(PID.TID 0000.0001) %MON dynstat_wvel_mean            =   3.1318543379149E-09
(PID.TID 0000.0001) %MON dynstat_wvel_sd              =   4.0863346423378E-05
(PID.TID 0000.0001) %MON dynstat_wvel_del2            =   2.1097040906715E-07
(PID.TID 0000.0001) %MON dynstat_theta_max            =   1.2000000000000E+00
(PID.TID 0000.0001) %MON dynstat_theta_min            =  -1.0000000000000E+00
(PID.TID 0000.0001) %MON dynstat_theta_mean           =   5.6910143357963E-01
(PID.TID 0000.0001) %MON dynstat_theta_sd             =   8.6858266561354E-01
(PID.TID 0000.0001) %MON dynstat_theta_del2           =   1.5442286136685E-06
(PID.TID 0000.0001) %MON dynstat_salt_max             =   3.4700000000000E+01
(PID.TID 0000.0001) %MON dynstat_salt_min             =   3.4000000000000E+01
(PID.TID 0000.0001) %MON dynstat_salt_mean            =   3.4499254721689E+01
(PID.TID 0000.0001) %MON dynstat_salt_sd              =   2.7636596092231E-01
(PID.TID 0000.0001) %MON dynstat_salt_del2            =   4.9580031489822E-07
(PID.TID 0000.0001) %MON advcfl_uvel_max              =   3.0324913648236E-04
(PID.TID 0000.0001) %MON advcfl_vvel_max              =   4.0413691117198E-04
(PID.TID 0000.0001) %MON advcfl_wvel_max              =   1.1479214122758E-03
(PID.TID 0000.0001) %MON advcfl_W_hf_max              =   1.1479214122758E-03
(PID.TID 0000.0001) %MON pe_b_mean                    =  -8.3193155812207E-01
(PID.TID 0000.0001) %MON ke_max                       =   6.5061509681874E-06
(PID.TID 0000.0001) %MON ke_mean                      =   1.3265366491226E-08
(PID.TID 0000.0001) %MON ke_vol                       =   4.2725432622356E+12
(PID.TID 0000.0001) // =======================================================
(PID.TID 0000.0001) // End MONITOR dynamic field statistics
(PID.TID 0000.0001) // =======================================================
(PID.TID 0000.0001) // =======================================================
(PID.TID 0000.0001) // Begin OBCS MONITOR field statistics
(PID.TID 0000.0001) // =======================================================
(PID.TID 0000.0001) %MON obc_N_vVel_max               =   1.3385038385414E-05
(PID.TID 0000.0001) %MON obc_N_vVel_min               =   1.3385038385413E-05
(PID.TID 0000.0001) %MON obc_N_vVel_mean              =   1.3385038385414E-05
(PID.TID 0000.0001) %MON obc_N_vVel_sd                =  -1.1373733422604E-23
(PID.TID 0000.0001) %MON obc_N_vVel_Int               =   8.8341253343730E+02
(PID.TID 0000.0001) // =======================================================
(PID.TID 0000.0001) // End OBCS MONITOR field statistics
(PID.TID 0000.0001) // =======================================================
 cg2d: Sum(rhs),rhsMax =   4.52221146436280E+00  2.99871136368714E+02
(PID.TID 0000.0001)      cg2d_init_res =   7.90725846573496E-06
(PID.TID 0000.0001)      cg2d_iters(min,last) =      -1      74
(PID.TID 0000.0001)      cg2d_last_res =   9.65901736740223E-12
(PID.TID 0000.0001) // =======================================================
(PID.TID 0000.0001) // Begin MONITOR dynamic field statistics
(PID.TID 0000.0001) // =======================================================
(PID.TID 0000.0001) %MON time_tsnumber                =                   221
(PID.TID 0000.0001) %MON time_secondsf                =   2.2100000000000E+04
(PID.TID 0000.0001) %MON dynstat_eta_max              =   5.7945703715196E+00
(PID.TID 0000.0001) %MON dynstat_eta_min              =  -1.4199056113661E+01
(PID.TID 0000.0001) %MON dynstat_eta_mean             =  -2.5112605383669E+00
(PID.TID 0000.0001) %MON dynstat_eta_sd               =   4.9524759387614E+00
(PID.TID 0000.0001) %MON dynstat_eta_del2             =   2.0714019910280E-01
(PID.TID 0000.0001) %MON dynstat_uvel_max             =   2.6500361073367E-03
(PID.TID 0000.0001) %MON dynstat_uvel_min             =  -3.0337384207506E-03
(PID.TID 0000.0001) %MON dynstat_uvel_mean            =  -1.1135342369424E-07
(PID.TID 0000.0001) %MON dynstat_uvel_sd              =   9.0776514052826E-05
(PID.TID 0000.0001) %MON dynstat_uvel_del2            =   3.6550892776790E-07
(PID.TID 0000.0001) %MON dynstat_vvel_max             =   4.0483386869195E-03
(PID.TID 0000.0001) %MON dynstat_vvel_min             =  -3.1657571195600E-03
(PID.TID 0000.0001) %MON dynstat_vvel_mean            =   1.3174815588932E-05
(PID.TID 0000.0001) %MON dynstat_vvel_sd              =   1.3538084962850E-04
(PID.TID 0000.0001) %MON dynstat_vvel_del2            =   5.5097891887406E-07
(PID.TID 0000.0001) %MON dynstat_wvel_max             =   2.2764462260561E-04
(PID.TID 0000.0001) %MON dynstat_wvel_min             =  -2.3813882915996E-04
(PID.TID 0000.0001) %MON dynstat_wvel_mean            =   3.4574702352198E-09
(PID.TID 0000.0001) %MON dynstat_wvel_sd              =   4.0735499242002E-05
(PID.TID 0000.0001) %MON dynstat_wvel_del2            =   2.0983498065993E-07
(PID.TID 0000.0001) %MON dynstat_theta_max            =   1.2000000000000E+00
(PID.TID 0000.0001) %MON dynstat_theta_min            =  -1.0000000000000E+00
(PID.TID 0000.0001) %MON dynstat_theta_mean           =   5.6910117552210E-01
(PID.TID 0000.0001) %MON dynstat_theta_sd             =   8.6858253165509E-01
(PID.TID 0000.0001) %MON dynstat_theta_del2           =   1.5389743944238E-06
(PID.TID 0000.0001) %MON dynstat_salt_max             =   3.4700000000000E+01
(PID.TID 0000.0001) %MON dynstat_salt_min             =   3.4000000000000E+01
(PID.TID 0000.0001) %MON dynstat_salt_mean            =   3.4499254618432E+01
(PID.TID 0000.0001) %MON dynstat_salt_sd              =   2.7636591258037E-01
(PID.TID 0000.0001) %MON dynstat_salt_del2            =   4.9424258326305E-07
(PID.TID 0000.0001) %MON advcfl_uvel_max              =   3.0337384207506E-04
(PID.TID 0000.0001) %MON advcfl_vvel_max              =   4.0483386869195E-04
(PID.TID 0000.0001) %MON advcfl_wvel_max              =   1.1906941457998E-03
(PID.TID 0000.0001) %MON advcfl_W_hf_max              =   1.1906941457998E-03
(PID.TID 0000.0001) %MON pe_b_mean                    =  -8.3193519618372E-01
(PID.TID 0000.0001) %MON ke_max                       =   6.5425198533624E-06
(PID.TID 0000.0001) %MON ke_mean                      =   1.3287846549662E-08
(PID.TID 0000.0001) %MON ke_vol                       =   4.2725431869672E+12
(PID.TID 0000.0001) // =======================================================
(PID.TID 0000.0001) // End MONITOR dynamic field statistics
(PID.TID 0000.0001) // =======================================================
(PID.TID 0000.0001) // =======================================================
(PID.TID 0000.0001) // Begin OBCS MONITOR field statistics
(PID.TID 0000.0001) // =======================================================
(PID.TID 0000.0001) %MON obc_N_vVel_max               =   1.3278630698119E-05
(PID.TID 0000.0001) %MON obc_N_vVel_min               =   1.3278630698119E-05
(PID.TID 0000.0001) %MON obc_N_vVel_mean              =   1.3278630698119E-05
(PID.TID 0000.0001) %MON obc_N_vVel_sd                =  -4.8596860987490E-24
(PID.TID 0000.0001) %MON obc_N_vVel_Int               =   8.7638962607584E+02
(PID.TID 0000.0001) // =======================================================
(PID.TID 0000.0001) // End OBCS MONITOR field statistics
(PID.TID 0000.0001) // =======================================================
 cg2d: Sum(rhs),rhsMax =   4.52223286822999E+00  2.99871207684812E+02
(PID.TID 0000.0001)      cg2d_init_res =   7.87320216533842E-06
(PID.TID 0000.0001)      cg2d_iters(min,last) =      -1      74
(PID.TID 0000.0001)      cg2d_last_res =   9.98406071326623E-12
(PID.TID 0000.0001) // =======================================================
(PID.TID 0000.0001) // Begin MONITOR dynamic field statistics
(PID.TID 0000.0001) // =======================================================
(PID.TID 0000.0001) %MON time_tsnumber                =                   222
(PID.TID 0000.0001) %MON time_secondsf                =   2.2200000000000E+04
(PID.TID 0000.0001) %MON dynstat_eta_max              =   5.7945478465710E+00
(PID.TID 0000.0001) %MON dynstat_eta_min              =  -1.4199087749854E+01
(PID.TID 0000.0001) %MON dynstat_eta_mean             =  -2.5112730215335E+00
(PID.TID 0000.0001) %MON dynstat_eta_sd               =   4.9524800061169E+00
(PID.TID 0000.0001) %MON dynstat_eta_del2             =   2.0714020098454E-01
(PID.TID 0000.0001) %MON dynstat_uvel_max             =   2.6460068458753E-03
(PID.TID 0000.0001) %MON dynstat_uvel_min             =  -3.0348719538047E-03
(PID.TID 0000.0001) %MON dynstat_uvel_mean            =  -1.1400621195731E-07
(PID.TID 0000.0001) %MON dynstat_uvel_sd              =   9.1004189330669E-05
(PID.TID 0000.0001) %MON dynstat_uvel_del2            =   3.6482638753959E-07
(PID.TID 0000.0001) %MON dynstat_vvel_max             =   4.0552317978690E-03
(PID.TID 0000.0001) %MON dynstat_vvel_min             =  -3.1684317592893E-03
(PID.TID 0000.0001) %MON dynstat_vvel_mean            =   1.3146250302078E-05
(PID.TID 0000.0001) %MON dynstat_vvel_sd              =   1.3541102214483E-04
(PID.TID 0000.0001) %MON dynstat_vvel_del2            =   5.4931995501334E-07
(PID.TID 0000.0001) %MON dynstat_wvel_max             =   2.3321260747301E-04
(PID.TID 0000.0001) %MON dynstat_wvel_min             =  -2.4605906065136E-04
(PID.TID 0000.0001) %MON dynstat_wvel_mean            =   3.8415527378809E-09
(PID.TID 0000.0001) %MON dynstat_wvel_sd              =   4.0612546984583E-05
(PID.TID 0000.0001) %MON dynstat_wvel_del2            =   2.0878056603075E-07
(PID.TID 0000.0001) %MON dynstat_theta_max            =   1.2000000000000E+00
(PID.TID 0000.0001) %MON dynstat_theta_min            =  -1.0000000000000E+00
(PID.TID 0000.0001) %MON dynstat_theta_mean           =   5.6910091742566E-01
(PID.TID 0000.0001) %MON dynstat_theta_sd             =   8.6858239769056E-01
(PID.TID 0000.0001) %MON dynstat_theta_del2           =   1.5336705495445E-06
(PID.TID 0000.0001) %MON dynstat_salt_max             =   3.4700000000000E+01
(PID.TID 0000.0001) %MON dynstat_salt_min             =   3.4000000000000E+01
(PID.TID 0000.0001) %MON dynstat_salt_mean            =   3.4499254515161E+01
(PID.TID 0000.0001) %MON dynstat_salt_sd              =   2.7636586423585E-01
(PID.TID 0000.0001) %MON dynstat_salt_del2            =   4.9266999848485E-07
(PID.TID 0000.0001) %MON advcfl_uvel_max              =   3.0348719538047E-04
(PID.TID 0000.0001) %MON advcfl_vvel_max              =   4.0552317978690E-04
(PID.TID 0000.0001) %MON advcfl_wvel_max              =   1.2302953032568E-03
(PID.TID 0000.0001) %MON advcfl_W_hf_max              =   1.2302953032568E-03
(PID.TID 0000.0001) %MON pe_b_mean                    =  -8.3193882974862E-01
(PID.TID 0000.0001) %MON ke_max                       =   6.5788584733635E-06
(PID.TID 0000.0001) %MON ke_mean                      =   1.3311845753708E-08
(PID.TID 0000.0001) %MON ke_vol                       =   4.2725431124021E+12
(PID.TID 0000.0001) // =======================================================
(PID.TID 0000.0001) // End MONITOR dynamic field statistics
(PID.TID 0000.0001) // =======================================================
(PID.TID 0000.0001) // =======================================================
(PID.TID 0000.0001) // Begin OBCS MONITOR field statistics
(PID.TID 0000.0001) // =======================================================
(PID.TID 0000.0001) %MON obc_N_vVel_max               =   1.3215875863159E-05
(PID.TID 0000.0001) %MON obc_N_vVel_min               =   1.3215875863158E-05
(PID.TID 0000.0001) %MON obc_N_vVel_mean              =   1.3215875863159E-05
(PID.TID 0000.0001) %MON obc_N_vVel_sd                =  -1.4656606478674E-23
(PID.TID 0000.0001) %MON obc_N_vVel_Int               =   8.7224780696848E+02
(PID.TID 0000.0001) // =======================================================
(PID.TID 0000.0001) // End OBCS MONITOR field statistics
(PID.TID 0000.0001) // =======================================================
 cg2d: Sum(rhs),rhsMax =   4.52225422727541E+00  2.99871279260820E+02
(PID.TID 0000.0001)      cg2d_init_res =   7.84529815383978E-06
(PID.TID 0000.0001)      cg2d_iters(min,last) =      -1      75
(PID.TID 0000.0001)      cg2d_last_res =   8.62661388709569E-12
(PID.TID 0000.0001) // =======================================================
(PID.TID 0000.0001) // Begin MONITOR dynamic field statistics
(PID.TID 0000.0001) // =======================================================
(PID.TID 0000.0001) %MON time_tsnumber                =                   223
(PID.TID 0000.0001) %MON time_secondsf                =   2.2300000000000E+04
(PID.TID 0000.0001) %MON dynstat_eta_max              =   5.7945253038066E+00
(PID.TID 0000.0001) %MON dynstat_eta_min              =  -1.4199119346249E+01
(PID.TID 0000.0001) %MON dynstat_eta_mean             =  -2.5112854819921E+00
(PID.TID 0000.0001) %MON dynstat_eta_sd               =   4.9524841035353E+00
(PID.TID 0000.0001) %MON dynstat_eta_del2             =   2.0714020286688E-01
(PID.TID 0000.0001) %MON dynstat_uvel_max             =   2.6418414332383E-03
(PID.TID 0000.0001) %MON dynstat_uvel_min             =  -3.0358926490059E-03
(PID.TID 0000.0001) %MON dynstat_uvel_mean            =  -1.1652235775783E-07
(PID.TID 0000.0001) %MON dynstat_uvel_sd              =   9.1233809648268E-05
(PID.TID 0000.0001) %MON dynstat_uvel_del2            =   3.6414307373989E-07
(PID.TID 0000.0001) %MON dynstat_vvel_max             =   4.0620446801967E-03
(PID.TID 0000.0001) %MON dynstat_vvel_min             =  -3.1709287976831E-03
(PID.TID 0000.0001) %MON dynstat_vvel_mean            =   1.3165596757906E-05
(PID.TID 0000.0001) %MON dynstat_vvel_sd              =   1.3544879024392E-04
(PID.TID 0000.0001) %MON dynstat_vvel_del2            =   5.4778995757949E-07
(PID.TID 0000.0001) %MON dynstat_wvel_max             =   2.3612058591852E-04
(PID.TID 0000.0001) %MON dynstat_wvel_min             =  -2.4951213651123E-04
(PID.TID 0000.0001) %MON dynstat_wvel_mean            =   4.2704803120862E-09
(PID.TID 0000.0001) %MON dynstat_wvel_sd              =   4.0499021151922E-05
(PID.TID 0000.0001) %MON dynstat_wvel_del2            =   2.0786984493995E-07
(PID.TID 0000.0001) %MON dynstat_theta_max            =   1.2000000000000E+00
(PID.TID 0000.0001) %MON dynstat_theta_min            =  -1.0000000000000E+00
(PID.TID 0000.0001) %MON dynstat_theta_mean           =   5.6910065930938E-01
(PID.TID 0000.0001) %MON dynstat_theta_sd             =   8.6858226366518E-01
(PID.TID 0000.0001) %MON dynstat_theta_del2           =   1.5282706406084E-06
(PID.TID 0000.0001) %MON dynstat_salt_max             =   3.4700000000000E+01
(PID.TID 0000.0001) %MON dynstat_salt_min             =   3.4000000000000E+01
(PID.TID 0000.0001) %MON dynstat_salt_mean            =   3.4499254411882E+01
(PID.TID 0000.0001) %MON dynstat_salt_sd              =   2.7636581587130E-01
(PID.TID 0000.0001) %MON dynstat_salt_del2            =   4.9106782138485E-07
(PID.TID 0000.0001) %MON advcfl_uvel_max              =   3.0358926490059E-04
(PID.TID 0000.0001) %MON advcfl_vvel_max              =   4.0620446801967E-04
(PID.TID 0000.0001) %MON advcfl_wvel_max              =   1.2475606825562E-03
(PID.TID 0000.0001) %MON advcfl_W_hf_max              =   1.2475606825562E-03
(PID.TID 0000.0001) %MON pe_b_mean                    =  -8.3194247069857E-01
(PID.TID 0000.0001) %MON ke_max                       =   6.6151532637725E-06
(PID.TID 0000.0001) %MON ke_mean                      =   1.3337725346311E-08
(PID.TID 0000.0001) %MON ke_vol                       =   4.2725430382521E+12
(PID.TID 0000.0001) // =======================================================
(PID.TID 0000.0001) // End MONITOR dynamic field statistics
(PID.TID 0000.0001) // =======================================================
(PID.TID 0000.0001) // =======================================================
(PID.TID 0000.0001) // Begin OBCS MONITOR field statistics
(PID.TID 0000.0001) // =======================================================
(PID.TID 0000.0001) %MON obc_N_vVel_max               =   1.3195581922898E-05
(PID.TID 0000.0001) %MON obc_N_vVel_min               =   1.3195581922898E-05
(PID.TID 0000.0001) %MON obc_N_vVel_mean              =   1.3195581922898E-05
(PID.TID 0000.0001) %MON obc_N_vVel_sd                =  -4.9630836753182E-24
(PID.TID 0000.0001) %MON obc_N_vVel_Int               =   8.7090840691125E+02
(PID.TID 0000.0001) // =======================================================
(PID.TID 0000.0001) // End OBCS MONITOR field statistics
(PID.TID 0000.0001) // =======================================================
 cg2d: Sum(rhs),rhsMax =   4.52227562121841E+00  2.99871351151420E+02
(PID.TID 0000.0001)      cg2d_init_res =   7.82515267436412E-06
(PID.TID 0000.0001)      cg2d_iters(min,last) =      -1      75
(PID.TID 0000.0001)      cg2d_last_res =   8.88109150677082E-12
(PID.TID 0000.0001) // =======================================================
(PID.TID 0000.0001) // Begin MONITOR dynamic field statistics
(PID.TID 0000.0001) // =======================================================
(PID.TID 0000.0001) %MON time_tsnumber                =                   224
(PID.TID 0000.0001) %MON time_secondsf                =   2.2400000000000E+04
(PID.TID 0000.0001) %MON dynstat_eta_max              =   5.7945026781853E+00
(PID.TID 0000.0001) %MON dynstat_eta_min              =  -1.4199150946318E+01
(PID.TID 0000.0001) %MON dynstat_eta_mean             =  -2.5112979644702E+00
(PID.TID 0000.0001) %MON dynstat_eta_sd               =   4.9524882429961E+00
(PID.TID 0000.0001) %MON dynstat_eta_del2             =   2.0714020475189E-01
(PID.TID 0000.0001) %MON dynstat_uvel_max             =   2.6375409203894E-03
(PID.TID 0000.0001) %MON dynstat_uvel_min             =  -3.0368011959041E-03
(PID.TID 0000.0001) %MON dynstat_uvel_mean            =  -1.1884645894906E-07
(PID.TID 0000.0001) %MON dynstat_uvel_sd              =   9.1465423504822E-05
(PID.TID 0000.0001) %MON dynstat_uvel_del2            =   3.6345909267157E-07
(PID.TID 0000.0001) %MON dynstat_vvel_max             =   4.0687723209718E-03
(PID.TID 0000.0001) %MON dynstat_vvel_min             =  -3.1732541724976E-03
(PID.TID 0000.0001) %MON dynstat_vvel_mean            =   1.3229285892957E-05
(PID.TID 0000.0001) %MON dynstat_vvel_sd              =   1.3549615371845E-04
(PID.TID 0000.0001) %MON dynstat_vvel_del2            =   5.4642306782534E-07
(PID.TID 0000.0001) %MON dynstat_wvel_max             =   2.3553807889771E-04
(PID.TID 0000.0001) %MON dynstat_wvel_min             =  -2.4843321517698E-04
(PID.TID 0000.0001) %MON dynstat_wvel_mean            =   4.7303529522969E-09
(PID.TID 0000.0001) %MON dynstat_wvel_sd              =   4.0398073936514E-05
(PID.TID 0000.0001) %MON dynstat_wvel_del2            =   2.0714424978378E-07
(PID.TID 0000.0001) %MON dynstat_theta_max            =   1.2000000000000E+00
(PID.TID 0000.0001) %MON dynstat_theta_min            =  -1.0000000000000E+00
(PID.TID 0000.0001) %MON dynstat_theta_mean           =   5.6910040119013E-01
(PID.TID 0000.0001) %MON dynstat_theta_sd             =   8.6858212955312E-01
(PID.TID 0000.0001) %MON dynstat_theta_del2           =   1.5227475483301E-06
(PID.TID 0000.0001) %MON dynstat_salt_max             =   3.4700000000000E+01
(PID.TID 0000.0001) %MON dynstat_salt_min             =   3.4000000000000E+01
(PID.TID 0000.0001) %MON dynstat_salt_mean            =   3.4499254308601E+01
(PID.TID 0000.0001) %MON dynstat_salt_sd              =   2.7636576747872E-01
(PID.TID 0000.0001) %MON dynstat_salt_del2            =   4.8942741837956E-07
(PID.TID 0000.0001) %MON advcfl_uvel_max              =   3.0368011959041E-04
(PID.TID 0000.0001) %MON advcfl_vvel_max              =   4.0687723209718E-04
(PID.TID 0000.0001) %MON advcfl_wvel_max              =   1.2421660758849E-03
(PID.TID 0000.0001) %MON advcfl_W_hf_max              =   1.2421660758849E-03
(PID.TID 0000.0001) %MON pe_b_mean                    =  -8.3194612996012E-01
(PID.TID 0000.0001) %MON ke_max                       =   6.6513867882355E-06
(PID.TID 0000.0001) %MON ke_mean                      =   1.3365718586882E-08
(PID.TID 0000.0001) %MON ke_vol                       =   4.2725429642370E+12
(PID.TID 0000.0001) // =======================================================
(PID.TID 0000.0001) // End MONITOR dynamic field statistics
(PID.TID 0000.0001) // =======================================================
(PID.TID 0000.0001) // =======================================================
(PID.TID 0000.0001) // Begin OBCS MONITOR field statistics
(PID.TID 0000.0001) // =======================================================
(PID.TID 0000.0001) %MON obc_N_vVel_max               =   1.3215550232621E-05
(PID.TID 0000.0001) %MON obc_N_vVel_min               =   1.3215550232621E-05
(PID.TID 0000.0001) %MON obc_N_vVel_mean              =   1.3215550232621E-05
(PID.TID 0000.0001) %MON obc_N_vVel_sd                =   2.7332169520767E-12
(PID.TID 0000.0001) %MON obc_N_vVel_Int               =   8.7222631535301E+02
(PID.TID 0000.0001) // =======================================================
(PID.TID 0000.0001) // End OBCS MONITOR field statistics
(PID.TID 0000.0001) // =======================================================
 cg2d: Sum(rhs),rhsMax =   4.52229712363565E+00  2.99871423409887E+02
(PID.TID 0000.0001)      cg2d_init_res =   7.81328771460205E-06
(PID.TID 0000.0001)      cg2d_iters(min,last) =      -1      75
(PID.TID 0000.0001)      cg2d_last_res =   9.11345498756331E-12
(PID.TID 0000.0001) // =======================================================
(PID.TID 0000.0001) // Begin MONITOR dynamic field statistics
(PID.TID 0000.0001) // =======================================================
(PID.TID 0000.0001) %MON time_tsnumber                =                   225
(PID.TID 0000.0001) %MON time_secondsf                =   2.2500000000000E+04
(PID.TID 0000.0001) %MON dynstat_eta_max              =   5.7944799128075E+00
(PID.TID 0000.0001) %MON dynstat_eta_min              =  -1.4199182590824E+01
(PID.TID 0000.0001) %MON dynstat_eta_mean             =  -2.5113105102723E+00
(PID.TID 0000.0001) %MON dynstat_eta_sd               =   4.9524924346239E+00
(PID.TID 0000.0001) %MON dynstat_eta_del2             =   2.0714020664058E-01
(PID.TID 0000.0001) %MON dynstat_uvel_max             =   2.6331063598626E-03
(PID.TID 0000.0001) %MON dynstat_uvel_min             =  -3.0375982990094E-03
(PID.TID 0000.0001) %MON dynstat_uvel_mean            =  -1.2093202626350E-07
(PID.TID 0000.0001) %MON dynstat_uvel_sd              =   9.1699076742756E-05
(PID.TID 0000.0001) %MON dynstat_uvel_del2            =   3.6277454877864E-07
(PID.TID 0000.0001) %MON dynstat_vvel_max             =   4.0754086864627E-03
(PID.TID 0000.0001) %MON dynstat_vvel_min             =  -3.1754147618335E-03
(PID.TID 0000.0001) %MON dynstat_vvel_mean            =   1.3332850253965E-05
(PID.TID 0000.0001) %MON dynstat_vvel_sd              =   1.3555397481176E-04
(PID.TID 0000.0001) %MON dynstat_vvel_del2            =   5.4523103509605E-07
(PID.TID 0000.0001) %MON dynstat_wvel_max             =   2.3143254684814E-04
(PID.TID 0000.0001) %MON dynstat_wvel_min             =  -2.4284348415199E-04
(PID.TID 0000.0001) %MON dynstat_wvel_mean            =   5.2075009127536E-09
(PID.TID 0000.0001) %MON dynstat_wvel_sd              =   4.0311092681572E-05
(PID.TID 0000.0001) %MON dynstat_wvel_del2            =   2.0661873516495E-07
(PID.TID 0000.0001) %MON dynstat_theta_max            =   1.2000000000000E+00
(PID.TID 0000.0001) %MON dynstat_theta_min            =  -1.0000000000000E+00
(PID.TID 0000.0001) %MON dynstat_theta_mean           =   5.6910014308417E-01
(PID.TID 0000.0001) %MON dynstat_theta_sd             =   8.6858199531541E-01
(PID.TID 0000.0001) %MON dynstat_theta_del2           =   1.5170944999586E-06
(PID.TID 0000.0001) %MON dynstat_salt_max             =   3.4700000000000E+01
(PID.TID 0000.0001) %MON dynstat_salt_min             =   3.4000000000000E+01
(PID.TID 0000.0001) %MON dynstat_salt_mean            =   3.4499254205322E+01
(PID.TID 0000.0001) %MON dynstat_salt_sd              =   2.7636571904561E-01
(PID.TID 0000.0001) %MON dynstat_salt_del2            =   4.8774663355220E-07
(PID.TID 0000.0001) %MON advcfl_uvel_max              =   3.0375982990094E-04
(PID.TID 0000.0001) %MON advcfl_vvel_max              =   4.0754086864627E-04
(PID.TID 0000.0001) %MON advcfl_wvel_max              =   1.2142174207599E-03
(PID.TID 0000.0001) %MON advcfl_W_hf_max              =   1.2142174207599E-03
(PID.TID 0000.0001) %MON pe_b_mean                    =  -8.3194981729558E-01
(PID.TID 0000.0001) %MON ke_max                       =   6.6875384498842E-06
(PID.TID 0000.0001) %MON ke_mean                      =   1.3395898380442E-08
(PID.TID 0000.0001) %MON ke_vol                       =   4.2725428900910E+12
(PID.TID 0000.0001) // =======================================================
(PID.TID 0000.0001) // End MONITOR dynamic field statistics
(PID.TID 0000.0001) // =======================================================
(PID.TID 0000.0001) // =======================================================
(PID.TID 0000.0001) // Begin OBCS MONITOR field statistics
(PID.TID 0000.0001) // =======================================================
(PID.TID 0000.0001) %MON obc_N_vVel_max               =   1.3272692931653E-05
(PID.TID 0000.0001) %MON obc_N_vVel_min               =   1.3272692931653E-05
(PID.TID 0000.0001) %MON obc_N_vVel_mean              =   1.3272692931653E-05
(PID.TID 0000.0001) %MON obc_N_vVel_sd                =  -4.4977945807571E-24
(PID.TID 0000.0001) %MON obc_N_vVel_Int               =   8.7599773348911E+02
(PID.TID 0000.0001) // =======================================================
(PID.TID 0000.0001) // End OBCS MONITOR field statistics
(PID.TID 0000.0001) // =======================================================
 cg2d: Sum(rhs),rhsMax =   4.52231880051147E+00  2.99871496084874E+02
(PID.TID 0000.0001)      cg2d_init_res =   7.80991866476975E-06
(PID.TID 0000.0001)      cg2d_iters(min,last) =      -1      75
(PID.TID 0000.0001)      cg2d_last_res =   9.30877009006598E-12
(PID.TID 0000.0001) // =======================================================
(PID.TID 0000.0001) // Begin MONITOR dynamic field statistics
(PID.TID 0000.0001) // =======================================================
(PID.TID 0000.0001) %MON time_tsnumber                =                   226
(PID.TID 0000.0001) %MON time_secondsf                =   2.2600000000000E+04
(PID.TID 0000.0001) %MON dynstat_eta_max              =   5.7944569576334E+00
(PID.TID 0000.0001) %MON dynstat_eta_min              =  -1.4199214316912E+01
(PID.TID 0000.0001) %MON dynstat_eta_mean             =  -2.5113231564484E+00
(PID.TID 0000.0001) %MON dynstat_eta_sd               =   4.9524966865777E+00
(PID.TID 0000.0001) %MON dynstat_eta_del2             =   2.0714020853416E-01
(PID.TID 0000.0001) %MON dynstat_uvel_max             =   2.6285387774365E-03
(PID.TID 0000.0001) %MON dynstat_uvel_min             =  -3.0382846719554E-03
(PID.TID 0000.0001) %MON dynstat_uvel_mean            =  -1.2274133357024E-07
(PID.TID 0000.0001) %MON dynstat_uvel_sd              =   9.1934812157421E-05
(PID.TID 0000.0001) %MON dynstat_uvel_del2            =   3.6208954833026E-07
(PID.TID 0000.0001) %MON dynstat_vvel_max             =   4.0819469475988E-03
(PID.TID 0000.0001) %MON dynstat_vvel_min             =  -3.1774182772120E-03
(PID.TID 0000.0001) %MON dynstat_vvel_mean            =   1.3471099755260E-05
(PID.TID 0000.0001) %MON dynstat_vvel_sd              =   1.3562189318581E-04
(PID.TID 0000.0001) %MON dynstat_vvel_del2            =   5.4420215407102E-07
(PID.TID 0000.0001) %MON dynstat_wvel_max             =   2.2382687064889E-04
(PID.TID 0000.0001) %MON dynstat_wvel_min             =  -2.3285068237238E-04
(PID.TID 0000.0001) %MON dynstat_wvel_mean            =   5.6886149284741E-09
(PID.TID 0000.0001) %MON dynstat_wvel_sd              =   4.0237560626451E-05
(PID.TID 0000.0001) %MON dynstat_wvel_del2            =   2.0628035049669E-07
(PID.TID 0000.0001) %MON dynstat_theta_max            =   1.2000000000000E+00
(PID.TID 0000.0001) %MON dynstat_theta_min            =  -1.0000000000000E+00
(PID.TID 0000.0001) %MON dynstat_theta_mean           =   5.6909988500563E-01
(PID.TID 0000.0001) %MON dynstat_theta_sd             =   8.6858186097286E-01
(PID.TID 0000.0001) %MON dynstat_theta_del2           =   1.5113314130257E-06
(PID.TID 0000.0001) %MON dynstat_salt_max             =   3.4700000000000E+01
(PID.TID 0000.0001) %MON dynstat_salt_min             =   3.4000000000000E+01
(PID.TID 0000.0001) %MON dynstat_salt_mean            =   3.4499254102050E+01
(PID.TID 0000.0001) %MON dynstat_salt_sd              =   2.7636567057847E-01
(PID.TID 0000.0001) %MON dynstat_salt_del2            =   4.8603171044679E-07
(PID.TID 0000.0001) %MON advcfl_uvel_max              =   3.0382846719554E-04
(PID.TID 0000.0001) %MON advcfl_vvel_max              =   4.0819469475988E-04
(PID.TID 0000.0001) %MON advcfl_wvel_max              =   1.1642534118619E-03
(PID.TID 0000.0001) %MON advcfl_W_hf_max              =   1.1642534118619E-03
(PID.TID 0000.0001) %MON pe_b_mean                    =  -8.3195354112588E-01
(PID.TID 0000.0001) %MON ke_max                       =   6.7235850909520E-06
(PID.TID 0000.0001) %MON ke_mean                      =   1.3428165736466E-08
(PID.TID 0000.0001) %MON ke_vol                       =   4.2725428155690E+12
(PID.TID 0000.0001) // =======================================================
(PID.TID 0000.0001) // End MONITOR dynamic field statistics
(PID.TID 0000.0001) // =======================================================
(PID.TID 0000.0001) // =======================================================
(PID.TID 0000.0001) // Begin OBCS MONITOR field statistics
(PID.TID 0000.0001) // =======================================================
(PID.TID 0000.0001) %MON obc_N_vVel_max               =   1.3363182663990E-05
(PID.TID 0000.0001) %MON obc_N_vVel_min               =   1.3363182663989E-05
(PID.TID 0000.0001) %MON obc_N_vVel_mean              =   1.3363182663989E-05
(PID.TID 0000.0001) %MON obc_N_vVel_sd                =   4.0162198576253E-12
(PID.TID 0000.0001) %MON obc_N_vVel_Int               =   8.8197005582329E+02
(PID.TID 0000.0001) // =======================================================
(PID.TID 0000.0001) // End OBCS MONITOR field statistics
(PID.TID 0000.0001) // =======================================================
 cg2d: Sum(rhs),rhsMax =   4.52234070903002E+00  2.99871569220111E+02
(PID.TID 0000.0001)      cg2d_init_res =   7.81428546739178E-06
(PID.TID 0000.0001)      cg2d_iters(min,last) =      -1      75
(PID.TID 0000.0001)      cg2d_last_res =   9.45869042122612E-12
(PID.TID 0000.0001) // =======================================================
(PID.TID 0000.0001) // Begin MONITOR dynamic field statistics
(PID.TID 0000.0001) // =======================================================
(PID.TID 0000.0001) %MON time_tsnumber                =                   227
(PID.TID 0000.0001) %MON time_secondsf                =   2.2700000000000E+04
(PID.TID 0000.0001) %MON dynstat_eta_max              =   5.7944337708025E+00
(PID.TID 0000.0001) %MON dynstat_eta_min              =  -1.4199246157295E+01
(PID.TID 0000.0001) %MON dynstat_eta_mean             =  -2.5113359351200E+00
(PID.TID 0000.0001) %MON dynstat_eta_sd               =   4.9525010049650E+00
(PID.TID 0000.0001) %MON dynstat_eta_del2             =   2.0714021043387E-01
(PID.TID 0000.0001) %MON dynstat_uvel_max             =   2.6246477281795E-03
(PID.TID 0000.0001) %MON dynstat_uvel_min             =  -3.0388610374672E-03
(PID.TID 0000.0001) %MON dynstat_uvel_mean            =  -1.2424593765339E-07
(PID.TID 0000.0001) %MON dynstat_uvel_sd              =   9.2172669017650E-05
(PID.TID 0000.0001) %MON dynstat_uvel_del2            =   3.6140420539016E-07
(PID.TID 0000.0001) %MON dynstat_vvel_max             =   4.0883797134121E-03
(PID.TID 0000.0001) %MON dynstat_vvel_min             =  -3.1792729733411E-03
(PID.TID 0000.0001) %MON dynstat_vvel_mean            =   1.3638299791922E-05
(PID.TID 0000.0001) %MON dynstat_vvel_sd              =   1.3569840488796E-04
(PID.TID 0000.0001) %MON dynstat_vvel_del2            =   5.4330342054011E-07
(PID.TID 0000.0001) %MON dynstat_wvel_max             =   2.1971387314473E-04
(PID.TID 0000.0001) %MON dynstat_wvel_min             =  -2.1864786843017E-04
(PID.TID 0000.0001) %MON dynstat_wvel_mean            =   6.1612257430372E-09
(PID.TID 0000.0001) %MON dynstat_wvel_sd              =   4.0175182724862E-05
(PID.TID 0000.0001) %MON dynstat_wvel_del2            =   2.0609086272219E-07
(PID.TID 0000.0001) %MON dynstat_theta_max            =   1.2000000000000E+00
(PID.TID 0000.0001) %MON dynstat_theta_min            =  -1.0000000000000E+00
(PID.TID 0000.0001) %MON dynstat_theta_mean           =   5.6909962696632E-01
(PID.TID 0000.0001) %MON dynstat_theta_sd             =   8.6858172658147E-01
(PID.TID 0000.0001) %MON dynstat_theta_del2           =   1.5054974493264E-06
(PID.TID 0000.0001) %MON dynstat_salt_max             =   3.4700000000000E+01
(PID.TID 0000.0001) %MON dynstat_salt_min             =   3.4000000000000E+01
(PID.TID 0000.0001) %MON dynstat_salt_mean            =   3.4499253998788E+01
(PID.TID 0000.0001) %MON dynstat_salt_sd              =   2.7636562209525E-01
(PID.TID 0000.0001) %MON dynstat_salt_del2            =   4.8429496158799E-07
(PID.TID 0000.0001) %MON advcfl_uvel_max              =   3.0388610374672E-04
(PID.TID 0000.0001) %MON advcfl_vvel_max              =   4.0883797134121E-04
(PID.TID 0000.0001) %MON advcfl_wvel_max              =   1.0985693657236E-03
(PID.TID 0000.0001) %MON advcfl_W_hf_max              =   1.0985693657236E-03
(PID.TID 0000.0001) %MON pe_b_mean                    =  -8.3195730840396E-01
(PID.TID 0000.0001) %MON ke_max                       =   6.7595017160999E-06
(PID.TID 0000.0001) %MON ke_mean                      =   1.3462260188659E-08
(PID.TID 0000.0001) %MON ke_vol                       =   4.2725427404507E+12
(PID.TID 0000.0001) // =======================================================
(PID.TID 0000.0001) // End MONITOR dynamic field statistics
(PID.TID 0000.0001) // =======================================================
(PID.TID 0000.0001) // =======================================================
(PID.TID 0000.0001) // Begin OBCS MONITOR field statistics
(PID.TID 0000.0001) // =======================================================
(PID.TID 0000.0001) %MON obc_N_vVel_max               =   1.3482585533936E-05
(PID.TID 0000.0001) %MON obc_N_vVel_min               =   1.3482585533936E-05
(PID.TID 0000.0001) %MON obc_N_vVel_mean              =   1.3482585533936E-05
(PID.TID 0000.0001) %MON obc_N_vVel_sd                =   1.9756666002857E-12
(PID.TID 0000.0001) %MON obc_N_vVel_Int               =   8.8985064523977E+02
(PID.TID 0000.0001) // =======================================================
(PID.TID 0000.0001) // End OBCS MONITOR field statistics
(PID.TID 0000.0001) // =======================================================
 cg2d: Sum(rhs),rhsMax =   4.52236289671178E+00  2.99871642852944E+02
(PID.TID 0000.0001)      cg2d_init_res =   7.82501319922295E-06
(PID.TID 0000.0001)      cg2d_iters(min,last) =      -1      75
(PID.TID 0000.0001)      cg2d_last_res =   9.56583243176008E-12
(PID.TID 0000.0001) // =======================================================
(PID.TID 0000.0001) // Begin MONITOR dynamic field statistics
(PID.TID 0000.0001) // =======================================================
(PID.TID 0000.0001) %MON time_tsnumber                =                   228
(PID.TID 0000.0001) %MON time_secondsf                =   2.2800000000000E+04
(PID.TID 0000.0001) %MON dynstat_eta_max              =   5.7944103192120E+00
(PID.TID 0000.0001) %MON dynstat_eta_min              =  -1.4199278139720E+01
(PID.TID 0000.0001) %MON dynstat_eta_mean             =  -2.5113488729892E+00
(PID.TID 0000.0001) %MON dynstat_eta_sd               =   4.9525053938189E+00
(PID.TID 0000.0001) %MON dynstat_eta_del2             =   2.0714021234058E-01
(PID.TID 0000.0001) %MON dynstat_uvel_max             =   2.6213561057205E-03
(PID.TID 0000.0001) %MON dynstat_uvel_min             =  -3.0393281292334E-03
(PID.TID 0000.0001) %MON dynstat_uvel_mean            =  -1.2542683346567E-07
(PID.TID 0000.0001) %MON dynstat_uvel_sd              =   9.2412682184733E-05
(PID.TID 0000.0001) %MON dynstat_uvel_del2            =   3.6071863641722E-07
(PID.TID 0000.0001) %MON dynstat_vvel_max             =   4.0946992667923E-03
(PID.TID 0000.0001) %MON dynstat_vvel_min             =  -3.1809874264477E-03
(PID.TID 0000.0001) %MON dynstat_vvel_mean            =   1.3828353157548E-05
(PID.TID 0000.0001) %MON dynstat_vvel_sd              =   1.3578108707188E-04
(PID.TID 0000.0001) %MON dynstat_vvel_del2            =   5.4248545465944E-07
(PID.TID 0000.0001) %MON dynstat_wvel_max             =   2.1946991878215E-04
(PID.TID 0000.0001) %MON dynstat_wvel_min             =  -2.0268421302739E-04
(PID.TID 0000.0001) %MON dynstat_wvel_mean            =   6.6138936609234E-09
(PID.TID 0000.0001) %MON dynstat_wvel_sd              =   4.0120244870438E-05
(PID.TID 0000.0001) %MON dynstat_wvel_del2            =   2.0599283028414E-07
(PID.TID 0000.0001) %MON dynstat_theta_max            =   1.2000000000000E+00
(PID.TID 0000.0001) %MON dynstat_theta_min            =  -1.0000000000000E+00
(PID.TID 0000.0001) %MON dynstat_theta_mean           =   5.6909936897611E-01
(PID.TID 0000.0001) %MON dynstat_theta_sd             =   8.6858159221830E-01
(PID.TID 0000.0001) %MON dynstat_theta_del2           =   1.4996465362314E-06
(PID.TID 0000.0001) %MON dynstat_salt_max             =   3.4700000000000E+01
(PID.TID 0000.0001) %MON dynstat_salt_min             =   3.4000000000000E+01
(PID.TID 0000.0001) %MON dynstat_salt_mean            =   3.4499253895541E+01
(PID.TID 0000.0001) %MON dynstat_salt_sd              =   2.7636557362029E-01
(PID.TID 0000.0001) %MON dynstat_salt_del2            =   4.8255326734880E-07
(PID.TID 0000.0001) %MON advcfl_uvel_max              =   3.0393281292334E-04
(PID.TID 0000.0001) %MON advcfl_vvel_max              =   4.0946992667923E-04
(PID.TID 0000.0001) %MON advcfl_wvel_max              =   1.0973495939107E-03
(PID.TID 0000.0001) %MON advcfl_W_hf_max              =   1.0973495939107E-03
(PID.TID 0000.0001) %MON pe_b_mean                    =  -8.3196112453527E-01
(PID.TID 0000.0001) %MON ke_max                       =   6.7952622092295E-06
(PID.TID 0000.0001) %MON ke_mean                      =   1.3497790025112E-08
(PID.TID 0000.0001) %MON ke_vol                       =   4.2725426645454E+12
(PID.TID 0000.0001) // =======================================================
(PID.TID 0000.0001) // End MONITOR dynamic field statistics
(PID.TID 0000.0001) // =======================================================
(PID.TID 0000.0001) // =======================================================
(PID.TID 0000.0001) // Begin OBCS MONITOR field statistics
(PID.TID 0000.0001) // =======================================================
(PID.TID 0000.0001) %MON obc_N_vVel_max               =   1.3626020949489E-05
(PID.TID 0000.0001) %MON obc_N_vVel_min               =   1.3626020949489E-05
(PID.TID 0000.0001) %MON obc_N_vVel_mean              =   1.3626020949489E-05
(PID.TID 0000.0001) %MON obc_N_vVel_sd                =   3.2988778294900E-12
(PID.TID 0000.0001) %MON obc_N_vVel_Int               =   8.9931738266625E+02
(PID.TID 0000.0001) // =======================================================
(PID.TID 0000.0001) // End OBCS MONITOR field statistics
(PID.TID 0000.0001) // =======================================================
 cg2d: Sum(rhs),rhsMax =   4.52238540082858E+00  2.99871717013319E+02
(PID.TID 0000.0001)      cg2d_init_res =   7.84019072205271E-06
(PID.TID 0000.0001)      cg2d_iters(min,last) =      -1      75
(PID.TID 0000.0001)      cg2d_last_res =   9.62831304900197E-12
(PID.TID 0000.0001) // =======================================================
(PID.TID 0000.0001) // Begin MONITOR dynamic field statistics
(PID.TID 0000.0001) // =======================================================
(PID.TID 0000.0001) %MON time_tsnumber                =                   229
(PID.TID 0000.0001) %MON time_secondsf                =   2.2900000000000E+04
(PID.TID 0000.0001) %MON dynstat_eta_max              =   5.7943865787544E+00
(PID.TID 0000.0001) %MON dynstat_eta_min              =  -1.4199310286583E+01
(PID.TID 0000.0001) %MON dynstat_eta_mean             =  -2.5113619910045E+00
(PID.TID 0000.0001) %MON dynstat_eta_sd               =   4.9525098551348E+00
(PID.TID 0000.0001) %MON dynstat_eta_del2             =   2.0714021425547E-01
(PID.TID 0000.0001) %MON dynstat_uvel_max             =   2.6179561169535E-03
(PID.TID 0000.0001) %MON dynstat_uvel_min             =  -3.0396866913875E-03
(PID.TID 0000.0001) %MON dynstat_uvel_mean            =  -1.2627445214798E-07
(PID.TID 0000.0001) %MON dynstat_uvel_sd              =   9.2654881988630E-05
(PID.TID 0000.0001) %MON dynstat_uvel_del2            =   3.6003296529279E-07
(PID.TID 0000.0001) %MON dynstat_vvel_max             =   4.1008977889518E-03
(PID.TID 0000.0001) %MON dynstat_vvel_min             =  -3.1825703123660E-03
(PID.TID 0000.0001) %MON dynstat_vvel_mean            =   1.4034978438959E-05
(PID.TID 0000.0001) %MON dynstat_vvel_sd              =   1.3586693531955E-04
(PID.TID 0000.0001) %MON dynstat_vvel_del2            =   5.4168945338401E-07
(PID.TID 0000.0001) %MON dynstat_wvel_max             =   2.1921772901420E-04
(PID.TID 0000.0001) %MON dynstat_wvel_min             =  -2.0593004518724E-04
(PID.TID 0000.0001) %MON dynstat_wvel_mean            =   7.0364328121754E-09
(PID.TID 0000.0001) %MON dynstat_wvel_sd              =   4.0068152391163E-05
(PID.TID 0000.0001) %MON dynstat_wvel_del2            =   2.0591809183115E-07
(PID.TID 0000.0001) %MON dynstat_theta_max            =   1.2000000000000E+00
(PID.TID 0000.0001) %MON dynstat_theta_min            =  -1.0000000000000E+00
(PID.TID 0000.0001) %MON dynstat_theta_mean           =   5.6909911104211E-01
(PID.TID 0000.0001) %MON dynstat_theta_sd             =   8.6858145793392E-01
(PID.TID 0000.0001) %MON dynstat_theta_del2           =   1.4938398008076E-06
(PID.TID 0000.0001) %MON dynstat_salt_max             =   3.4700000000000E+01
(PID.TID 0000.0001) %MON dynstat_salt_min             =   3.4000000000000E+01
(PID.TID 0000.0001) %MON dynstat_salt_mean            =   3.4499253792310E+01
(PID.TID 0000.0001) %MON dynstat_salt_sd              =   2.7636552516972E-01
(PID.TID 0000.0001) %MON dynstat_salt_del2            =   4.8082579923893E-07
(PID.TID 0000.0001) %MON advcfl_uvel_max              =   3.0396866913875E-04
(PID.TID 0000.0001) %MON advcfl_vvel_max              =   4.1008977889518E-04
(PID.TID 0000.0001) %MON advcfl_wvel_max              =   1.0960886450710E-03
(PID.TID 0000.0001) %MON advcfl_W_hf_max              =   1.0960886450710E-03
(PID.TID 0000.0001) %MON pe_b_mean                    =  -8.3196499333912E-01
(PID.TID 0000.0001) %MON ke_max                       =   6.8308399885205E-06
(PID.TID 0000.0001) %MON ke_mean                      =   1.3534278209513E-08
(PID.TID 0000.0001) %MON ke_vol                       =   4.2725425876944E+12
(PID.TID 0000.0001) // =======================================================
(PID.TID 0000.0001) // End MONITOR dynamic field statistics
(PID.TID 0000.0001) // =======================================================
(PID.TID 0000.0001) // =======================================================
(PID.TID 0000.0001) // Begin OBCS MONITOR field statistics
(PID.TID 0000.0001) // =======================================================
(PID.TID 0000.0001) %MON obc_N_vVel_max               =   1.3788313673249E-05
(PID.TID 0000.0001) %MON obc_N_vVel_min               =   1.3788313673248E-05
(PID.TID 0000.0001) %MON obc_N_vVel_mean              =   1.3788313673248E-05
(PID.TID 0000.0001) %MON obc_N_vVel_sd                =   2.1085767219792E-12
(PID.TID 0000.0001) %MON obc_N_vVel_Int               =   9.1002870243439E+02
(PID.TID 0000.0001) // =======================================================
(PID.TID 0000.0001) // End OBCS MONITOR field statistics
(PID.TID 0000.0001) // =======================================================
 cg2d: Sum(rhs),rhsMax =   4.52240824813359E+00  2.99871791722911E+02
(PID.TID 0000.0001)      cg2d_init_res =   7.85763320905307E-06
(PID.TID 0000.0001)      cg2d_iters(min,last) =      -1      75
(PID.TID 0000.0001)      cg2d_last_res =   9.63855634657937E-12
(PID.TID 0000.0001) // =======================================================
(PID.TID 0000.0001) // Begin MONITOR dynamic field statistics
(PID.TID 0000.0001) // =======================================================
(PID.TID 0000.0001) %MON time_tsnumber                =                   230
(PID.TID 0000.0001) %MON time_secondsf                =   2.3000000000000E+04
(PID.TID 0000.0001) %MON dynstat_eta_max              =   5.7943625343671E+00
(PID.TID 0000.0001) %MON dynstat_eta_min              =  -1.4199342614696E+01
(PID.TID 0000.0001) %MON dynstat_eta_mean             =  -2.5113753042042E+00
(PID.TID 0000.0001) %MON dynstat_eta_sd               =   4.9525143889412E+00
(PID.TID 0000.0001) %MON dynstat_eta_del2             =   2.0714021617907E-01
(PID.TID 0000.0001) %MON dynstat_uvel_max             =   2.6144483657955E-03
(PID.TID 0000.0001) %MON dynstat_uvel_min             =  -3.0399374785262E-03
(PID.TID 0000.0001) %MON dynstat_uvel_mean            =  -1.2678834190279E-07
(PID.TID 0000.0001) %MON dynstat_uvel_sd              =   9.2899293908979E-05
(PID.TID 0000.0001) %MON dynstat_uvel_del2            =   3.5934732387279E-07
(PID.TID 0000.0001) %MON dynstat_vvel_max             =   4.1069675714454E-03
(PID.TID 0000.0001) %MON dynstat_vvel_min             =  -3.1840301966977E-03
(PID.TID 0000.0001) %MON dynstat_vvel_mean            =   1.4251880856087E-05
(PID.TID 0000.0001) %MON dynstat_vvel_sd              =   1.3595276447987E-04
(PID.TID 0000.0001) %MON dynstat_vvel_del2            =   5.4085513636203E-07
(PID.TID 0000.0001) %MON dynstat_wvel_max             =   2.1895748746310E-04
(PID.TID 0000.0001) %MON dynstat_wvel_min             =  -2.0734673190435E-04
(PID.TID 0000.0001) %MON dynstat_wvel_mean            =   7.4200899275303E-09
(PID.TID 0000.0001) %MON dynstat_wvel_sd              =   4.0014065395713E-05
(PID.TID 0000.0001) %MON dynstat_wvel_del2            =   2.0579727450904E-07
(PID.TID 0000.0001) %MON dynstat_theta_max            =   1.2000000000000E+00
(PID.TID 0000.0001) %MON dynstat_theta_min            =  -1.0000000000000E+00
(PID.TID 0000.0001) %MON dynstat_theta_mean           =   5.6909885316909E-01
(PID.TID 0000.0001) %MON dynstat_theta_sd             =   8.6858132372845E-01
(PID.TID 0000.0001) %MON dynstat_theta_del2           =   1.4881377919209E-06
(PID.TID 0000.0001) %MON dynstat_salt_max             =   3.4700000000000E+01
(PID.TID 0000.0001) %MON dynstat_salt_min             =   3.4000000000000E+01
(PID.TID 0000.0001) %MON dynstat_salt_mean            =   3.4499253689096E+01
(PID.TID 0000.0001) %MON dynstat_salt_sd              =   2.7636547674344E-01
(PID.TID 0000.0001) %MON dynstat_salt_del2            =   4.7913160810032E-07
(PID.TID 0000.0001) %MON advcfl_uvel_max              =   3.0399374785262E-04
(PID.TID 0000.0001) %MON advcfl_vvel_max              =   4.1069675714454E-04
(PID.TID 0000.0001) %MON advcfl_wvel_max              =   1.0947874373155E-03
(PID.TID 0000.0001) %MON advcfl_W_hf_max              =   1.0947874373155E-03
(PID.TID 0000.0001) %MON pe_b_mean                    =  -8.3196891705477E-01
(PID.TID 0000.0001) %MON ke_max                       =   6.8662086601297E-06
(PID.TID 0000.0001) %MON ke_mean                      =   1.3571217486360E-08
(PID.TID 0000.0001) %MON ke_vol                       =   4.2725425097734E+12
(PID.TID 0000.0001) // =======================================================
(PID.TID 0000.0001) // End MONITOR dynamic field statistics
(PID.TID 0000.0001) // =======================================================
(PID.TID 0000.0001) // =======================================================
(PID.TID 0000.0001) // Begin OBCS MONITOR field statistics
(PID.TID 0000.0001) // =======================================================
(PID.TID 0000.0001) %MON obc_N_vVel_max               =   1.3964143559102E-05
(PID.TID 0000.0001) %MON obc_N_vVel_min               =   1.3964143559102E-05
(PID.TID 0000.0001) %MON obc_N_vVel_mean              =   1.3964143559102E-05
(PID.TID 0000.0001) %MON obc_N_vVel_sd                =   4.2537719614005E-13
(PID.TID 0000.0001) %MON obc_N_vVel_Int               =   9.2163347490071E+02
(PID.TID 0000.0001) // =======================================================
(PID.TID 0000.0001) // End OBCS MONITOR field statistics
(PID.TID 0000.0001) // =======================================================
 cg2d: Sum(rhs),rhsMax =   4.52243145486286E+00  2.99871866994506E+02
(PID.TID 0000.0001)      cg2d_init_res =   7.87508296687962E-06
(PID.TID 0000.0001)      cg2d_iters(min,last) =      -1      75
(PID.TID 0000.0001)      cg2d_last_res =   9.62243892429531E-12
(PID.TID 0000.0001) // =======================================================
(PID.TID 0000.0001) // Begin MONITOR dynamic field statistics
(PID.TID 0000.0001) // =======================================================
(PID.TID 0000.0001) %MON time_tsnumber                =                   231
(PID.TID 0000.0001) %MON time_secondsf                =   2.3100000000000E+04
(PID.TID 0000.0001) %MON dynstat_eta_max              =   5.7943381798523E+00
(PID.TID 0000.0001) %MON dynstat_eta_min              =  -1.4199375135197E+01
(PID.TID 0000.0001) %MON dynstat_eta_mean             =  -2.5113888217119E+00
(PID.TID 0000.0001) %MON dynstat_eta_sd               =   4.9525189934289E+00
(PID.TID 0000.0001) %MON dynstat_eta_del2             =   2.0714021811161E-01
(PID.TID 0000.0001) %MON dynstat_uvel_max             =   2.6108334464929E-03
(PID.TID 0000.0001) %MON dynstat_uvel_min             =  -3.0400812551399E-03
(PID.TID 0000.0001) %MON dynstat_uvel_mean            =  -1.2697668061989E-07
(PID.TID 0000.0001) %MON dynstat_uvel_sd              =   9.3145938341367E-05
(PID.TID 0000.0001) %MON dynstat_uvel_del2            =   3.5866184963778E-07
(PID.TID 0000.0001) %MON dynstat_vvel_max             =   4.1129012124888E-03
(PID.TID 0000.0001) %MON dynstat_vvel_min             =  -3.1853753421345E-03
(PID.TID 0000.0001) %MON dynstat_vvel_mean            =   1.4472911978866E-05
(PID.TID 0000.0001) %MON dynstat_vvel_sd              =   1.3603562395372E-04
(PID.TID 0000.0001) %MON dynstat_vvel_del2            =   5.3992864679439E-07
(PID.TID 0000.0001) %MON dynstat_wvel_max             =   2.1868937359523E-04
(PID.TID 0000.0001) %MON dynstat_wvel_min             =  -2.0780500759555E-04
(PID.TID 0000.0001) %MON dynstat_wvel_mean            =   7.7576679179850E-09
(PID.TID 0000.0001) %MON dynstat_wvel_sd              =   3.9953548061522E-05
(PID.TID 0000.0001) %MON dynstat_wvel_del2            =   2.0556900704115E-07
(PID.TID 0000.0001) %MON dynstat_theta_max            =   1.2000000000000E+00
(PID.TID 0000.0001) %MON dynstat_theta_min            =  -1.0000000000000E+00
(PID.TID 0000.0001) %MON dynstat_theta_mean           =   5.6909859535908E-01
(PID.TID 0000.0001) %MON dynstat_theta_sd             =   8.6858118946145E-01
(PID.TID 0000.0001) %MON dynstat_theta_del2           =   1.4825923493507E-06
(PID.TID 0000.0001) %MON dynstat_salt_max             =   3.4700000000000E+01
(PID.TID 0000.0001) %MON dynstat_salt_min             =   3.4000000000000E+01
(PID.TID 0000.0001) %MON dynstat_salt_mean            =   3.4499253585901E+01
(PID.TID 0000.0001) %MON dynstat_salt_sd              =   2.7636542829690E-01
(PID.TID 0000.0001) %MON dynstat_salt_del2            =   4.7748698730115E-07
(PID.TID 0000.0001) %MON advcfl_uvel_max              =   3.0400812551399E-04
(PID.TID 0000.0001) %MON advcfl_vvel_max              =   4.1129012124888E-04
(PID.TID 0000.0001) %MON advcfl_wvel_max              =   1.0934468679761E-03
(PID.TID 0000.0001) %MON advcfl_W_hf_max              =   1.0934468679761E-03
(PID.TID 0000.0001) %MON pe_b_mean                    =  -8.3197289638599E-01
(PID.TID 0000.0001) %MON ke_max                       =   6.9013426240655E-06
(PID.TID 0000.0001) %MON ke_mean                      =   1.3608128164021E-08
(PID.TID 0000.0001) %MON ke_vol                       =   4.2725424306930E+12
(PID.TID 0000.0001) // =======================================================
(PID.TID 0000.0001) // End MONITOR dynamic field statistics
(PID.TID 0000.0001) // =======================================================
(PID.TID 0000.0001) // =======================================================
(PID.TID 0000.0001) // Begin OBCS MONITOR field statistics
(PID.TID 0000.0001) // =======================================================
(PID.TID 0000.0001) %MON obc_N_vVel_max               =   1.4148189571978E-05
(PID.TID 0000.0001) %MON obc_N_vVel_min               =   1.4148189571978E-05
(PID.TID 0000.0001) %MON obc_N_vVel_mean              =   1.4148189571978E-05
(PID.TID 0000.0001) %MON obc_N_vVel_sd                =  -3.8774091213423E-24
(PID.TID 0000.0001) %MON obc_N_vVel_Int               =   9.3378051175054E+02
(PID.TID 0000.0001) // =======================================================
(PID.TID 0000.0001) // End OBCS MONITOR field statistics
(PID.TID 0000.0001) // =======================================================
 cg2d: Sum(rhs),rhsMax =   4.52245502702103E+00  2.99871942831843E+02
(PID.TID 0000.0001)      cg2d_init_res =   7.89045419420807E-06
(PID.TID 0000.0001)      cg2d_iters(min,last) =      -1      75
(PID.TID 0000.0001)      cg2d_last_res =   9.59990866942684E-12
(PID.TID 0000.0001) // =======================================================
(PID.TID 0000.0001) // Begin MONITOR dynamic field statistics
(PID.TID 0000.0001) // =======================================================
(PID.TID 0000.0001) %MON time_tsnumber                =                   232
(PID.TID 0000.0001) %MON time_secondsf                =   2.3200000000000E+04
(PID.TID 0000.0001) %MON dynstat_eta_max              =   5.7943135174649E+00
(PID.TID 0000.0001) %MON dynstat_eta_min              =  -1.4199407853594E+01
(PID.TID 0000.0001) %MON dynstat_eta_mean             =  -2.5114025468934E+00
(PID.TID 0000.0001) %MON dynstat_eta_sd               =   4.9525236651162E+00
(PID.TID 0000.0001) %MON dynstat_eta_del2             =   2.0714022005321E-01
(PID.TID 0000.0001) %MON dynstat_uvel_max             =   2.6071119504660E-03
(PID.TID 0000.0001) %MON dynstat_uvel_min             =  -3.0401187944413E-03
(PID.TID 0000.0001) %MON dynstat_uvel_mean            =  -1.2685544389338E-07
(PID.TID 0000.0001) %MON dynstat_uvel_sd              =   9.3394830686785E-05
(PID.TID 0000.0001) %MON dynstat_uvel_del2            =   3.5797668760010E-07
(PID.TID 0000.0001) %MON dynstat_vvel_max             =   4.1186917905573E-03
(PID.TID 0000.0001) %MON dynstat_vvel_min             =  -3.1866135354948E-03
(PID.TID 0000.0001) %MON dynstat_vvel_mean            =   1.4692214837879E-05
(PID.TID 0000.0001) %MON dynstat_vvel_sd              =   1.3611316612445E-04
(PID.TID 0000.0001) %MON dynstat_vvel_del2            =   5.3886934319498E-07
(PID.TID 0000.0001) %MON dynstat_wvel_max             =   2.1870712545021E-04
(PID.TID 0000.0001) %MON dynstat_wvel_min             =  -2.1436181171718E-04
(PID.TID 0000.0001) %MON dynstat_wvel_mean            =   8.0436003246715E-09
(PID.TID 0000.0001) %MON dynstat_wvel_sd              =   3.9883139401450E-05
(PID.TID 0000.0001) %MON dynstat_wvel_del2            =   2.0518763439745E-07
(PID.TID 0000.0001) %MON dynstat_theta_max            =   1.2000000000000E+00
(PID.TID 0000.0001) %MON dynstat_theta_min            =  -1.0000000000000E+00
(PID.TID 0000.0001) %MON dynstat_theta_mean           =   5.6909833761258E-01
(PID.TID 0000.0001) %MON dynstat_theta_sd             =   8.6858105512363E-01
(PID.TID 0000.0001) %MON dynstat_theta_del2           =   1.4772377777168E-06
(PID.TID 0000.0001) %MON dynstat_salt_max             =   3.4700000000000E+01
(PID.TID 0000.0001) %MON dynstat_salt_min             =   3.4000000000000E+01
(PID.TID 0000.0001) %MON dynstat_salt_mean            =   3.4499253482724E+01
(PID.TID 0000.0001) %MON dynstat_salt_sd              =   2.7636537982715E-01
(PID.TID 0000.0001) %MON dynstat_salt_del2            =   4.7590259403555E-07
(PID.TID 0000.0001) %MON advcfl_uvel_max              =   3.0401187944413E-04
(PID.TID 0000.0001) %MON advcfl_vvel_max              =   4.1186917905573E-04
(PID.TID 0000.0001) %MON advcfl_wvel_max              =   1.0935356272510E-03
(PID.TID 0000.0001) %MON advcfl_W_hf_max              =   1.0935356272510E-03
(PID.TID 0000.0001) %MON pe_b_mean                    =  -8.3197693058440E-01
(PID.TID 0000.0001) %MON ke_max                       =   6.9362176205163E-06
(PID.TID 0000.0001) %MON ke_mean                      =   1.3644610235188E-08
(PID.TID 0000.0001) %MON ke_vol                       =   4.2725423503990E+12
(PID.TID 0000.0001) // =======================================================
(PID.TID 0000.0001) // End MONITOR dynamic field statistics
(PID.TID 0000.0001) // =======================================================
(PID.TID 0000.0001) // =======================================================
(PID.TID 0000.0001) // Begin OBCS MONITOR field statistics
(PID.TID 0000.0001) // =======================================================
(PID.TID 0000.0001) %MON obc_N_vVel_max               =   1.4335264080978E-05
(PID.TID 0000.0001) %MON obc_N_vVel_min               =   1.4335264080978E-05
(PID.TID 0000.0001) %MON obc_N_vVel_mean              =   1.4335264080978E-05
(PID.TID 0000.0001) %MON obc_N_vVel_sd                =   1.4822950118293E-12
(PID.TID 0000.0001) %MON obc_N_vVel_Int               =   9.4612742934455E+02
(PID.TID 0000.0001) // =======================================================
(PID.TID 0000.0001) // End OBCS MONITOR field statistics
(PID.TID 0000.0001) // =======================================================
 cg2d: Sum(rhs),rhsMax =   4.52247896087063E+00  2.99872019229338E+02
(PID.TID 0000.0001)      cg2d_init_res =   7.90208814758236E-06
(PID.TID 0000.0001)      cg2d_iters(min,last) =      -1      75
(PID.TID 0000.0001)      cg2d_last_res =   9.57537147231052E-12
(PID.TID 0000.0001) // =======================================================
(PID.TID 0000.0001) // Begin MONITOR dynamic field statistics
(PID.TID 0000.0001) // =======================================================
(PID.TID 0000.0001) %MON time_tsnumber                =                   233
(PID.TID 0000.0001) %MON time_secondsf                =   2.3300000000000E+04
(PID.TID 0000.0001) %MON dynstat_eta_max              =   5.7942885573031E+00
(PID.TID 0000.0001) %MON dynstat_eta_min              =  -1.4199440770005E+01
(PID.TID 0000.0001) %MON dynstat_eta_mean             =  -2.5114164776268E+00
(PID.TID 0000.0001) %MON dynstat_eta_sd               =   4.9525283990486E+00
(PID.TID 0000.0001) %MON dynstat_eta_del2             =   2.0714022200420E-01
(PID.TID 0000.0001) %MON dynstat_uvel_max             =   2.6032844721211E-03
(PID.TID 0000.0001) %MON dynstat_uvel_min             =  -3.0400508769404E-03
(PID.TID 0000.0001) %MON dynstat_uvel_mean            =  -1.2644750313397E-07
(PID.TID 0000.0001) %MON dynstat_uvel_sd              =   9.3645981384385E-05
(PID.TID 0000.0001) %MON dynstat_uvel_del2            =   3.5729198892365E-07
(PID.TID 0000.0001) %MON dynstat_vvel_max             =   4.1243330148628E-03
(PID.TID 0000.0001) %MON dynstat_vvel_min             =  -3.1877519397385E-03
(PID.TID 0000.0001) %MON dynstat_vvel_mean            =   1.4904351889994E-05
(PID.TID 0000.0001) %MON dynstat_vvel_sd              =   1.3618392452561E-04
(PID.TID 0000.0001) %MON dynstat_vvel_del2            =   5.3765467016784E-07
(PID.TID 0000.0001) %MON dynstat_wvel_max             =   2.2075561016667E-04
(PID.TID 0000.0001) %MON dynstat_wvel_min             =  -2.2418258209992E-04
(PID.TID 0000.0001) %MON dynstat_wvel_mean            =   8.2739946578937E-09
(PID.TID 0000.0001) %MON dynstat_wvel_sd              =   3.9800778475403E-05
(PID.TID 0000.0001) %MON dynstat_wvel_del2            =   2.0462859875496E-07
(PID.TID 0000.0001) %MON dynstat_theta_max            =   1.2000000000000E+00
(PID.TID 0000.0001) %MON dynstat_theta_min            =  -1.0000000000000E+00
(PID.TID 0000.0001) %MON dynstat_theta_mean           =   5.6909807992697E-01
(PID.TID 0000.0001) %MON dynstat_theta_sd             =   8.6858092076639E-01
(PID.TID 0000.0001) %MON dynstat_theta_del2           =   1.4720888787290E-06
(PID.TID 0000.0001) %MON dynstat_salt_max             =   3.4700000000000E+01
(PID.TID 0000.0001) %MON dynstat_salt_min             =   3.4000000000000E+01
(PID.TID 0000.0001) %MON dynstat_salt_mean            =   3.4499253379564E+01
(PID.TID 0000.0001) %MON dynstat_salt_sd              =   2.7636533135032E-01
(PID.TID 0000.0001) %MON dynstat_salt_del2            =   4.7438305759982E-07
(PID.TID 0000.0001) %MON advcfl_uvel_max              =   3.0400508769404E-04
(PID.TID 0000.0001) %MON advcfl_vvel_max              =   4.1243330148628E-04
(PID.TID 0000.0001) %MON advcfl_wvel_max              =   1.1209129104996E-03
(PID.TID 0000.0001) %MON advcfl_W_hf_max              =   1.1209129104996E-03
(PID.TID 0000.0001) %MON pe_b_mean                    =  -8.3198101755796E-01
(PID.TID 0000.0001) %MON ke_max                       =   6.9708112096718E-06
(PID.TID 0000.0001) %MON ke_mean                      =   1.3680383728998E-08
(PID.TID 0000.0001) %MON ke_vol                       =   4.2725422688715E+12
(PID.TID 0000.0001) // =======================================================
(PID.TID 0000.0001) // End MONITOR dynamic field statistics
(PID.TID 0000.0001) // =======================================================
(PID.TID 0000.0001) // =======================================================
(PID.TID 0000.0001) // Begin OBCS MONITOR field statistics
(PID.TID 0000.0001) // =======================================================
(PID.TID 0000.0001) %MON obc_N_vVel_max               =   1.4520434658286E-05
(PID.TID 0000.0001) %MON obc_N_vVel_min               =   1.4520434658286E-05
(PID.TID 0000.0001) %MON obc_N_vVel_mean              =   1.4520434658286E-05
(PID.TID 0000.0001) %MON obc_N_vVel_sd                =   4.3765741236075E-12
(PID.TID 0000.0001) %MON obc_N_vVel_Int               =   9.5834868744688E+02
(PID.TID 0000.0001) // =======================================================
(PID.TID 0000.0001) // End OBCS MONITOR field statistics
(PID.TID 0000.0001) // =======================================================
 cg2d: Sum(rhs),rhsMax =   4.52250324368139E+00  2.99872096172359E+02
(PID.TID 0000.0001)      cg2d_init_res =   7.90886864696011E-06
(PID.TID 0000.0001)      cg2d_iters(min,last) =      -1      75
(PID.TID 0000.0001)      cg2d_last_res =   9.55586656886241E-12
(PID.TID 0000.0001) // =======================================================
(PID.TID 0000.0001) // Begin MONITOR dynamic field statistics
(PID.TID 0000.0001) // =======================================================
(PID.TID 0000.0001) %MON time_tsnumber                =                   234
(PID.TID 0000.0001) %MON time_secondsf                =   2.3400000000000E+04
(PID.TID 0000.0001) %MON dynstat_eta_max              =   5.7942680523384E+00
(PID.TID 0000.0001) %MON dynstat_eta_min              =  -1.4199473879508E+01
(PID.TID 0000.0001) %MON dynstat_eta_mean             =  -2.5114306067204E+00
(PID.TID 0000.0001) %MON dynstat_eta_sd               =   4.9525331890051E+00
(PID.TID 0000.0001) %MON dynstat_eta_del2             =   2.0714022396430E-01
(PID.TID 0000.0001) %MON dynstat_uvel_max             =   2.5993516167748E-03
(PID.TID 0000.0001) %MON dynstat_uvel_min             =  -3.0398782888881E-03
(PID.TID 0000.0001) %MON dynstat_uvel_mean            =  -1.2578172029643E-07
(PID.TID 0000.0001) %MON dynstat_uvel_sd              =   9.3899396041779E-05
(PID.TID 0000.0001) %MON dynstat_uvel_del2            =   3.5660790731073E-07
(PID.TID 0000.0001) %MON dynstat_vvel_max             =   4.1298193499753E-03
(PID.TID 0000.0001) %MON dynstat_vvel_min             =  -3.1887969711475E-03
(PID.TID 0000.0001) %MON dynstat_vvel_mean            =   1.5104414272401E-05
(PID.TID 0000.0001) %MON dynstat_vvel_sd              =   1.3624746977110E-04
(PID.TID 0000.0001) %MON dynstat_vvel_del2            =   5.3628257552761E-07
(PID.TID 0000.0001) %MON dynstat_wvel_max             =   2.2267148428783E-04
(PID.TID 0000.0001) %MON dynstat_wvel_min             =  -2.3312778334267E-04
(PID.TID 0000.0001) %MON dynstat_wvel_mean            =   8.4466017621014E-09
(PID.TID 0000.0001) %MON dynstat_wvel_sd              =   3.9706036834083E-05
(PID.TID 0000.0001) %MON dynstat_wvel_del2            =   2.0389101484524E-07
(PID.TID 0000.0001) %MON dynstat_theta_max            =   1.2000000000000E+00
(PID.TID 0000.0001) %MON dynstat_theta_min            =  -1.0000000000000E+00
(PID.TID 0000.0001) %MON dynstat_theta_mean           =   5.6909782229840E-01
(PID.TID 0000.0001) %MON dynstat_theta_sd             =   8.6858078639375E-01
(PID.TID 0000.0001) %MON dynstat_theta_del2           =   1.4671380680098E-06
(PID.TID 0000.0001) %MON dynstat_salt_max             =   3.4700000000000E+01
(PID.TID 0000.0001) %MON dynstat_salt_min             =   3.4000000000000E+01
(PID.TID 0000.0001) %MON dynstat_salt_mean            =   3.4499253276421E+01
(PID.TID 0000.0001) %MON dynstat_salt_sd              =   2.7636528286793E-01
(PID.TID 0000.0001) %MON dynstat_salt_del2            =   4.7292603812743E-07
(PID.TID 0000.0001) %MON advcfl_uvel_max              =   3.0398782888881E-04
(PID.TID 0000.0001) %MON advcfl_vvel_max              =   4.1298193499753E-04
(PID.TID 0000.0001) %MON advcfl_wvel_max              =   1.1656389167133E-03
(PID.TID 0000.0001) %MON advcfl_W_hf_max              =   1.1656389167133E-03
(PID.TID 0000.0001) %MON pe_b_mean                    =  -8.3198515401281E-01
(PID.TID 0000.0001) %MON ke_max                       =   7.0051031752157E-06
(PID.TID 0000.0001) %MON ke_mean                      =   1.3715312711908E-08
(PID.TID 0000.0001) %MON ke_vol                       =   4.2725421861229E+12
(PID.TID 0000.0001) // =======================================================
(PID.TID 0000.0001) // End MONITOR dynamic field statistics
(PID.TID 0000.0001) // =======================================================
(PID.TID 0000.0001) // =======================================================
(PID.TID 0000.0001) // Begin OBCS MONITOR field statistics
(PID.TID 0000.0001) // =======================================================
(PID.TID 0000.0001) %MON obc_N_vVel_max               =   1.4699132943282E-05
(PID.TID 0000.0001) %MON obc_N_vVel_min               =   1.4699132943281E-05
(PID.TID 0000.0001) %MON obc_N_vVel_mean              =   1.4699132943281E-05
(PID.TID 0000.0001) %MON obc_N_vVel_sd                =   1.7831083757026E-12
(PID.TID 0000.0001) %MON obc_N_vVel_Int               =   9.7014277425657E+02
(PID.TID 0000.0001) // =======================================================
(PID.TID 0000.0001) // End OBCS MONITOR field statistics
(PID.TID 0000.0001) // =======================================================
 cg2d: Sum(rhs),rhsMax =   4.52252785462451E+00  2.99872173637711E+02
(PID.TID 0000.0001)      cg2d_init_res =   7.91031453466918E-06
(PID.TID 0000.0001)      cg2d_iters(min,last) =      -1      75
(PID.TID 0000.0001)      cg2d_last_res =   9.54999699762857E-12
(PID.TID 0000.0001) // =======================================================
(PID.TID 0000.0001) // Begin MONITOR dynamic field statistics
(PID.TID 0000.0001) // =======================================================
(PID.TID 0000.0001) %MON time_tsnumber                =                   235
(PID.TID 0000.0001) %MON time_secondsf                =   2.3500000000000E+04
(PID.TID 0000.0001) %MON dynstat_eta_max              =   5.7942551641765E+00
(PID.TID 0000.0001) %MON dynstat_eta_min              =  -1.4199507172573E+01
(PID.TID 0000.0001) %MON dynstat_eta_mean             =  -2.5114449224136E+00
(PID.TID 0000.0001) %MON dynstat_eta_sd               =   4.9525380277393E+00
(PID.TID 0000.0001) %MON dynstat_eta_del2             =   2.0714022593297E-01
(PID.TID 0000.0001) %MON dynstat_uvel_max             =   2.5953140045036E-03
(PID.TID 0000.0001) %MON dynstat_uvel_min             =  -3.0396018202268E-03
(PID.TID 0000.0001) %MON dynstat_uvel_mean            =  -1.2489176371859E-07
(PID.TID 0000.0001) %MON dynstat_uvel_sd              =   9.4155075844187E-05
(PID.TID 0000.0001) %MON dynstat_uvel_del2            =   3.5592460098926E-07
(PID.TID 0000.0001) %MON dynstat_vvel_max             =   4.1351461136401E-03
(PID.TID 0000.0001) %MON dynstat_vvel_min             =  -3.1897542029586E-03
(PID.TID 0000.0001) %MON dynstat_vvel_mean            =   1.5288110435338E-05
(PID.TID 0000.0001) %MON dynstat_vvel_sd              =   1.3630442248841E-04
(PID.TID 0000.0001) %MON dynstat_vvel_del2            =   5.3477121600517E-07
(PID.TID 0000.0001) %MON dynstat_wvel_max             =   2.2533072551071E-04
(PID.TID 0000.0001) %MON dynstat_wvel_min             =  -2.3795535951624E-04
(PID.TID 0000.0001) %MON dynstat_wvel_mean            =   8.5607637435630E-09
(PID.TID 0000.0001) %MON dynstat_wvel_sd              =   3.9600130432464E-05
(PID.TID 0000.0001) %MON dynstat_wvel_del2            =   2.0299723321524E-07
(PID.TID 0000.0001) %MON dynstat_theta_max            =   1.2000000000000E+00
(PID.TID 0000.0001) %MON dynstat_theta_min            =  -1.0000000000000E+00
(PID.TID 0000.0001) %MON dynstat_theta_mean           =   5.6909756472142E-01
(PID.TID 0000.0001) %MON dynstat_theta_sd             =   8.6858065193917E-01
(PID.TID 0000.0001) %MON dynstat_theta_del2           =   1.4623562413716E-06
(PID.TID 0000.0001) %MON dynstat_salt_max             =   3.4700000000000E+01
(PID.TID 0000.0001) %MON dynstat_salt_min             =   3.4000000000000E+01
(PID.TID 0000.0001) %MON dynstat_salt_mean            =   3.4499253173292E+01
(PID.TID 0000.0001) %MON dynstat_salt_sd              =   2.7636523435858E-01
(PID.TID 0000.0001) %MON dynstat_salt_del2            =   4.7152223872094E-07
(PID.TID 0000.0001) %MON advcfl_uvel_max              =   3.0396018202268E-04
(PID.TID 0000.0001) %MON advcfl_vvel_max              =   4.1351461136401E-04
(PID.TID 0000.0001) %MON advcfl_wvel_max              =   1.1897767975812E-03
(PID.TID 0000.0001) %MON advcfl_W_hf_max              =   1.1897767975812E-03
(PID.TID 0000.0001) %MON pe_b_mean                    =  -8.3198933561176E-01
(PID.TID 0000.0001) %MON ke_max                       =   7.0390758486514E-06
(PID.TID 0000.0001) %MON ke_mean                      =   1.3749409836431E-08
(PID.TID 0000.0001) %MON ke_vol                       =   4.2725421021961E+12
(PID.TID 0000.0001) // =======================================================
(PID.TID 0000.0001) // End MONITOR dynamic field statistics
(PID.TID 0000.0001) // =======================================================
(PID.TID 0000.0001) // =======================================================
(PID.TID 0000.0001) // Begin OBCS MONITOR field statistics
(PID.TID 0000.0001) // =======================================================
(PID.TID 0000.0001) %MON obc_N_vVel_max               =   1.4867245124521E-05
(PID.TID 0000.0001) %MON obc_N_vVel_min               =   1.4867245124521E-05
(PID.TID 0000.0001) %MON obc_N_vVel_mean              =   1.4867245124521E-05
(PID.TID 0000.0001) %MON obc_N_vVel_sd                =   4.0927261579782E-12
(PID.TID 0000.0001) %MON obc_N_vVel_Int               =   9.8123817821836E+02
(PID.TID 0000.0001) // =======================================================
(PID.TID 0000.0001) // End OBCS MONITOR field statistics
(PID.TID 0000.0001) // =======================================================
 cg2d: Sum(rhs),rhsMax =   4.52255276581638E+00  2.99872251594141E+02
(PID.TID 0000.0001)      cg2d_init_res =   7.90653275413677E-06
(PID.TID 0000.0001)      cg2d_iters(min,last) =      -1      75
(PID.TID 0000.0001)      cg2d_last_res =   9.55259704070550E-12
(PID.TID 0000.0001) // =======================================================
(PID.TID 0000.0001) // Begin MONITOR dynamic field statistics
(PID.TID 0000.0001) // =======================================================
(PID.TID 0000.0001) %MON time_tsnumber                =                   236
(PID.TID 0000.0001) %MON time_secondsf                =   2.3600000000000E+04
(PID.TID 0000.0001) %MON dynstat_eta_max              =   5.7942419491688E+00
(PID.TID 0000.0001) %MON dynstat_eta_min              =  -1.4199540635566E+01
(PID.TID 0000.0001) %MON dynstat_eta_mean             =  -2.5114594089605E+00
(PID.TID 0000.0001) %MON dynstat_eta_sd               =   4.9525429072241E+00
(PID.TID 0000.0001) %MON dynstat_eta_del2             =   2.0714022790932E-01
(PID.TID 0000.0001) %MON dynstat_uvel_max             =   2.5911722754426E-03
(PID.TID 0000.0001) %MON dynstat_uvel_min             =  -3.0392222625935E-03
(PID.TID 0000.0001) %MON dynstat_uvel_mean            =  -1.2381486615145E-07
(PID.TID 0000.0001) %MON dynstat_uvel_sd              =   9.4413017748146E-05
(PID.TID 0000.0001) %MON dynstat_uvel_del2            =   3.5524222671394E-07
(PID.TID 0000.0001) %MON dynstat_vvel_max             =   4.1403095457468E-03
(PID.TID 0000.0001) %MON dynstat_vvel_min             =  -3.1906282966752E-03
(PID.TID 0000.0001) %MON dynstat_vvel_mean            =   1.5451833408043E-05
(PID.TID 0000.0001) %MON dynstat_vvel_sd              =   1.3635632969618E-04
(PID.TID 0000.0001) %MON dynstat_vvel_del2            =   5.3315609088850E-07
(PID.TID 0000.0001) %MON dynstat_wvel_max             =   2.2473648365580E-04
(PID.TID 0000.0001) %MON dynstat_wvel_min             =  -2.3857399983903E-04
(PID.TID 0000.0001) %MON dynstat_wvel_mean            =   8.6173280904259E-09
(PID.TID 0000.0001) %MON dynstat_wvel_sd              =   3.9485720404093E-05
(PID.TID 0000.0001) %MON dynstat_wvel_del2            =   2.0198956266483E-07
(PID.TID 0000.0001) %MON dynstat_theta_max            =   1.2000000000000E+00
(PID.TID 0000.0001) %MON dynstat_theta_min            =  -1.0000000000000E+00
(PID.TID 0000.0001) %MON dynstat_theta_mean           =   5.6909730718899E-01
(PID.TID 0000.0001) %MON dynstat_theta_sd             =   8.6858051737736E-01
(PID.TID 0000.0001) %MON dynstat_theta_del2           =   1.4576982709057E-06
(PID.TID 0000.0001) %MON dynstat_salt_max             =   3.4700000000000E+01
(PID.TID 0000.0001) %MON dynstat_salt_min             =   3.4000000000000E+01
(PID.TID 0000.0001) %MON dynstat_salt_mean            =   3.4499253070175E+01
(PID.TID 0000.0001) %MON dynstat_salt_sd              =   2.7636518581434E-01
(PID.TID 0000.0001) %MON dynstat_salt_del2            =   4.7015768970076E-07
(PID.TID 0000.0001) %MON advcfl_uvel_max              =   3.0392222625935E-04
(PID.TID 0000.0001) %MON advcfl_vvel_max              =   4.1403095457468E-04
(PID.TID 0000.0001) %MON advcfl_wvel_max              =   1.1928699991951E-03
(PID.TID 0000.0001) %MON advcfl_W_hf_max              =   1.1928699991951E-03
(PID.TID 0000.0001) %MON pe_b_mean                    =  -8.3199355714884E-01
(PID.TID 0000.0001) %MON ke_max                       =   7.0727143463948E-06
(PID.TID 0000.0001) %MON ke_mean                      =   1.3782822031903E-08
(PID.TID 0000.0001) %MON ke_vol                       =   4.2725420171609E+12
(PID.TID 0000.0001) // =======================================================
(PID.TID 0000.0001) // End MONITOR dynamic field statistics
(PID.TID 0000.0001) // =======================================================
(PID.TID 0000.0001) // =======================================================
(PID.TID 0000.0001) // Begin OBCS MONITOR field statistics
(PID.TID 0000.0001) // =======================================================
(PID.TID 0000.0001) %MON obc_N_vVel_max               =   1.5021185157745E-05
(PID.TID 0000.0001) %MON obc_N_vVel_min               =   1.5021185157745E-05
(PID.TID 0000.0001) %MON obc_N_vVel_mean              =   1.5021185157745E-05
(PID.TID 0000.0001) %MON obc_N_vVel_sd                =   2.6999128038001E-12
(PID.TID 0000.0001) %MON obc_N_vVel_Int               =   9.9139822041114E+02
(PID.TID 0000.0001) // =======================================================
(PID.TID 0000.0001) // End OBCS MONITOR field statistics
(PID.TID 0000.0001) // =======================================================
 cg2d: Sum(rhs),rhsMax =   4.52257794346978E+00  2.99872330003537E+02
(PID.TID 0000.0001)      cg2d_init_res =   7.89813974071709E-06
(PID.TID 0000.0001)      cg2d_iters(min,last) =      -1      75
(PID.TID 0000.0001)      cg2d_last_res =   9.53446292197220E-12
(PID.TID 0000.0001) // =======================================================
(PID.TID 0000.0001) // Begin MONITOR dynamic field statistics
(PID.TID 0000.0001) // =======================================================
(PID.TID 0000.0001) %MON time_tsnumber                =                   237
(PID.TID 0000.0001) %MON time_secondsf                =   2.3700000000000E+04
(PID.TID 0000.0001) %MON dynstat_eta_max              =   5.7942284628934E+00
(PID.TID 0000.0001) %MON dynstat_eta_min              =  -1.4199574251326E+01
(PID.TID 0000.0001) %MON dynstat_eta_mean             =  -2.5114740472794E+00
(PID.TID 0000.0001) %MON dynstat_eta_sd               =   4.9525478189050E+00
(PID.TID 0000.0001) %MON dynstat_eta_del2             =   2.0714022989232E-01
(PID.TID 0000.0001) %MON dynstat_uvel_max             =   2.5869270935637E-03
(PID.TID 0000.0001) %MON dynstat_uvel_min             =  -3.0387404076713E-03
(PID.TID 0000.0001) %MON dynstat_uvel_mean            =  -1.2259061669668E-07
(PID.TID 0000.0001) %MON dynstat_uvel_sd              =   9.4673215029879E-05
(PID.TID 0000.0001) %MON dynstat_uvel_del2            =   3.5456094036175E-07
(PID.TID 0000.0001) %MON dynstat_vvel_max             =   4.1453068511856E-03
(PID.TID 0000.0001) %MON dynstat_vvel_min             =  -3.1914229608088E-03
(PID.TID 0000.0001) %MON dynstat_vvel_mean            =   1.5592706414843E-05
(PID.TID 0000.0001) %MON dynstat_vvel_sd              =   1.3640542731765E-04
(PID.TID 0000.0001) %MON dynstat_vvel_del2            =   5.3148504927077E-07
(PID.TID 0000.0001) %MON dynstat_wvel_max             =   2.2085865453633E-04
(PID.TID 0000.0001) %MON dynstat_wvel_min             =  -2.3496990972759E-04
(PID.TID 0000.0001) %MON dynstat_wvel_mean            =   8.6185315966587E-09
(PID.TID 0000.0001) %MON dynstat_wvel_sd              =   3.9366534478735E-05
(PID.TID 0000.0001) %MON dynstat_wvel_del2            =   2.0092458146844E-07
(PID.TID 0000.0001) %MON dynstat_theta_max            =   1.2000000000000E+00
(PID.TID 0000.0001) %MON dynstat_theta_min            =  -1.0000000000000E+00
(PID.TID 0000.0001) %MON dynstat_theta_mean           =   5.6909704969286E-01
(PID.TID 0000.0001) %MON dynstat_theta_sd             =   8.6858038274342E-01
(PID.TID 0000.0001) %MON dynstat_theta_del2           =   1.4531122562729E-06
(PID.TID 0000.0001) %MON dynstat_salt_max             =   3.4700000000000E+01
(PID.TID 0000.0001) %MON dynstat_salt_min             =   3.4000000000000E+01
(PID.TID 0000.0001) %MON dynstat_salt_mean            =   3.4499252967068E+01
(PID.TID 0000.0001) %MON dynstat_salt_sd              =   2.7636513724656E-01
(PID.TID 0000.0001) %MON dynstat_salt_del2            =   4.6881614637277E-07
(PID.TID 0000.0001) %MON advcfl_uvel_max              =   3.0387404076713E-04
(PID.TID 0000.0001) %MON advcfl_vvel_max              =   4.1453068511856E-04
(PID.TID 0000.0001) %MON advcfl_wvel_max              =   1.1748495486379E-03
(PID.TID 0000.0001) %MON advcfl_W_hf_max              =   1.1748495486379E-03
(PID.TID 0000.0001) %MON pe_b_mean                    =  -8.3199781273547E-01
(PID.TID 0000.0001) %MON ke_max                       =   7.1060067252963E-06
(PID.TID 0000.0001) %MON ke_mean                      =   1.3815800308188E-08
(PID.TID 0000.0001) %MON ke_vol                       =   4.2725419311108E+12
(PID.TID 0000.0001) // =======================================================
(PID.TID 0000.0001) // End MONITOR dynamic field statistics
(PID.TID 0000.0001) // =======================================================
(PID.TID 0000.0001) // =======================================================
(PID.TID 0000.0001) // Begin OBCS MONITOR field statistics
(PID.TID 0000.0001) // =======================================================
(PID.TID 0000.0001) %MON obc_N_vVel_max               =   1.5157950307355E-05
(PID.TID 0000.0001) %MON obc_N_vVel_min               =   1.5157950307355E-05
(PID.TID 0000.0001) %MON obc_N_vVel_mean              =   1.5157950307355E-05
(PID.TID 0000.0001) %MON obc_N_vVel_sd                =   7.0081273440439E-13
(PID.TID 0000.0001) %MON obc_N_vVel_Int               =   1.0004247202854E+03
(PID.TID 0000.0001) // =======================================================
(PID.TID 0000.0001) // End OBCS MONITOR field statistics
(PID.TID 0000.0001) // =======================================================
 cg2d: Sum(rhs),rhsMax =   4.52260334911798E+00  2.99872408821862E+02
(PID.TID 0000.0001)      cg2d_init_res =   7.88612196257944E-06
(PID.TID 0000.0001)      cg2d_iters(min,last) =      -1      75
(PID.TID 0000.0001)      cg2d_last_res =   9.47264655580990E-12
(PID.TID 0000.0001) // =======================================================
(PID.TID 0000.0001) // Begin MONITOR dynamic field statistics
(PID.TID 0000.0001) // =======================================================
(PID.TID 0000.0001) %MON time_tsnumber                =                   238
(PID.TID 0000.0001) %MON time_secondsf                =   2.3800000000000E+04
(PID.TID 0000.0001) %MON dynstat_eta_max              =   5.7942147642318E+00
(PID.TID 0000.0001) %MON dynstat_eta_min              =  -1.4199607999879E+01
(PID.TID 0000.0001) %MON dynstat_eta_mean             =  -2.5114888156404E+00
(PID.TID 0000.0001) %MON dynstat_eta_sd               =   4.9525527539415E+00
(PID.TID 0000.0001) %MON dynstat_eta_del2             =   2.0714023188059E-01
(PID.TID 0000.0001) %MON dynstat_uvel_max             =   2.5825791497738E-03
(PID.TID 0000.0001) %MON dynstat_uvel_min             =  -3.0381570453102E-03
(PID.TID 0000.0001) %MON dynstat_uvel_mean            =  -1.2125977539230E-07
(PID.TID 0000.0001) %MON dynstat_uvel_sd              =   9.4935657855296E-05
(PID.TID 0000.0001) %MON dynstat_uvel_del2            =   3.5388089614465E-07
(PID.TID 0000.0001) %MON dynstat_vvel_max             =   4.1501362138590E-03
(PID.TID 0000.0001) %MON dynstat_vvel_min             =  -3.1921409368332E-03
(PID.TID 0000.0001) %MON dynstat_vvel_mean            =   1.5708607439158E-05
(PID.TID 0000.0001) %MON dynstat_vvel_sd              =   1.3645432184356E-04
(PID.TID 0000.0001) %MON dynstat_vvel_del2            =   5.2981183135770E-07
(PID.TID 0000.0001) %MON dynstat_wvel_max             =   2.1660549182142E-04
(PID.TID 0000.0001) %MON dynstat_wvel_min             =  -2.2720797330281E-04
(PID.TID 0000.0001) %MON dynstat_wvel_mean            =   8.5678504307012E-09
(PID.TID 0000.0001) %MON dynstat_wvel_sd              =   3.9246859127871E-05
(PID.TID 0000.0001) %MON dynstat_wvel_del2            =   1.9986568652524E-07
(PID.TID 0000.0001) %MON dynstat_theta_max            =   1.2000000000000E+00
(PID.TID 0000.0001) %MON dynstat_theta_min            =  -1.0000000000000E+00
(PID.TID 0000.0001) %MON dynstat_theta_mean           =   5.6909679222356E-01
(PID.TID 0000.0001) %MON dynstat_theta_sd             =   8.6858024802484E-01
(PID.TID 0000.0001) %MON dynstat_theta_del2           =   1.4485413350858E-06
(PID.TID 0000.0001) %MON dynstat_salt_max             =   3.4700000000000E+01
(PID.TID 0000.0001) %MON dynstat_salt_min             =   3.4000000000000E+01
(PID.TID 0000.0001) %MON dynstat_salt_mean            =   3.4499252863968E+01
(PID.TID 0000.0001) %MON dynstat_salt_sd              =   2.7636508865095E-01
(PID.TID 0000.0001) %MON dynstat_salt_del2            =   4.6747981913002E-07
(PID.TID 0000.0001) %MON advcfl_uvel_max              =   3.0381570453102E-04
(PID.TID 0000.0001) %MON advcfl_vvel_max              =   4.1501362138590E-04
(PID.TID 0000.0001) %MON advcfl_wvel_max              =   1.1360398665141E-03
(PID.TID 0000.0001) %MON advcfl_W_hf_max              =   1.1360398665141E-03
(PID.TID 0000.0001) %MON pe_b_mean                    =  -8.3200209599010E-01
(PID.TID 0000.0001) %MON ke_max                       =   7.1389440519920E-06
(PID.TID 0000.0001) %MON ke_mean                      =   1.3848658046022E-08
(PID.TID 0000.0001) %MON ke_vol                       =   4.2725418441592E+12
(PID.TID 0000.0001) // =======================================================
(PID.TID 0000.0001) // End MONITOR dynamic field statistics
(PID.TID 0000.0001) // =======================================================
(PID.TID 0000.0001) // =======================================================
(PID.TID 0000.0001) // Begin OBCS MONITOR field statistics
(PID.TID 0000.0001) // =======================================================
(PID.TID 0000.0001) %MON obc_N_vVel_max               =   1.5275159233324E-05
(PID.TID 0000.0001) %MON obc_N_vVel_min               =   1.5275159233324E-05
(PID.TID 0000.0001) %MON obc_N_vVel_mean              =   1.5275159233324E-05
(PID.TID 0000.0001) %MON obc_N_vVel_sd                =   5.3854452209303E-12
(PID.TID 0000.0001) %MON obc_N_vVel_Int               =   1.0081605093994E+03
(PID.TID 0000.0001) // =======================================================
(PID.TID 0000.0001) // End OBCS MONITOR field statistics
(PID.TID 0000.0001) // =======================================================
 cg2d: Sum(rhs),rhsMax =   4.52262894087465E+00  2.99872488000419E+02
(PID.TID 0000.0001)      cg2d_init_res =   7.87166008045647E-06
(PID.TID 0000.0001)      cg2d_iters(min,last) =      -1      75
(PID.TID 0000.0001)      cg2d_last_res =   9.37289807640771E-12
(PID.TID 0000.0001) // =======================================================
(PID.TID 0000.0001) // Begin MONITOR dynamic field statistics
(PID.TID 0000.0001) // =======================================================
(PID.TID 0000.0001) %MON time_tsnumber                =                   239
(PID.TID 0000.0001) %MON time_secondsf                =   2.3900000000000E+04
(PID.TID 0000.0001) %MON dynstat_eta_max              =   5.7942009136968E+00
(PID.TID 0000.0001) %MON dynstat_eta_min              =  -1.4199641859071E+01
(PID.TID 0000.0001) %MON dynstat_eta_mean             =  -2.5115036903755E+00
(PID.TID 0000.0001) %MON dynstat_eta_sd               =   4.9525577034547E+00
(PID.TID 0000.0001) %MON dynstat_eta_del2             =   2.0714023387271E-01
(PID.TID 0000.0001) %MON dynstat_uvel_max             =   2.5781291633944E-03
(PID.TID 0000.0001) %MON dynstat_uvel_min             =  -3.0374729612923E-03
(PID.TID 0000.0001) %MON dynstat_uvel_mean            =  -1.1986311720403E-07
(PID.TID 0000.0001) %MON dynstat_uvel_sd              =   9.5200333876345E-05
(PID.TID 0000.0001) %MON dynstat_uvel_del2            =   3.5320224637634E-07
(PID.TID 0000.0001) %MON dynstat_vvel_max             =   4.1547967885673E-03
(PID.TID 0000.0001) %MON dynstat_vvel_min             =  -3.1927840089079E-03
(PID.TID 0000.0001) %MON dynstat_vvel_mean            =   1.5798173533902E-05
(PID.TID 0000.0001) %MON dynstat_vvel_sd              =   1.3650563363484E-04
(PID.TID 0000.0001) %MON dynstat_vvel_del2            =   5.2818896115067E-07
(PID.TID 0000.0001) %MON dynstat_wvel_max             =   2.1627978815321E-04
(PID.TID 0000.0001) %MON dynstat_wvel_min             =  -2.1543137605997E-04
(PID.TID 0000.0001) %MON dynstat_wvel_mean            =   8.4698262150821E-09
(PID.TID 0000.0001) %MON dynstat_wvel_sd              =   3.9130966695897E-05
(PID.TID 0000.0001) %MON dynstat_wvel_del2            =   1.9887473883928E-07
(PID.TID 0000.0001) %MON dynstat_theta_max            =   1.2000000000000E+00
(PID.TID 0000.0001) %MON dynstat_theta_min            =  -1.0000000000000E+00
(PID.TID 0000.0001) %MON dynstat_theta_mean           =   5.6909653477035E-01
(PID.TID 0000.0001) %MON dynstat_theta_sd             =   8.6858011326835E-01
(PID.TID 0000.0001) %MON dynstat_theta_del2           =   1.4439329086585E-06
(PID.TID 0000.0001) %MON dynstat_salt_max             =   3.4700000000000E+01
(PID.TID 0000.0001) %MON dynstat_salt_min             =   3.4000000000000E+01
(PID.TID 0000.0001) %MON dynstat_salt_mean            =   3.4499252760871E+01
(PID.TID 0000.0001) %MON dynstat_salt_sd              =   2.7636504004247E-01
(PID.TID 0000.0001) %MON dynstat_salt_del2            =   4.6613231378980E-07
(PID.TID 0000.0001) %MON advcfl_uvel_max              =   3.0374729612923E-04
(PID.TID 0000.0001) %MON advcfl_vvel_max              =   4.1547967885673E-04
(PID.TID 0000.0001) %MON advcfl_wvel_max              =   1.0813989407660E-03
(PID.TID 0000.0001) %MON advcfl_W_hf_max              =   1.0813989407660E-03
(PID.TID 0000.0001) %MON pe_b_mean                    =  -8.3200640022890E-01
(PID.TID 0000.0001) %MON ke_max                       =   7.1715203976548E-06
(PID.TID 0000.0001) %MON ke_mean                      =   1.3881723505939E-08
(PID.TID 0000.0001) %MON ke_vol                       =   4.2725417564351E+12
(PID.TID 0000.0001) // =======================================================
(PID.TID 0000.0001) // End MONITOR dynamic field statistics
(PID.TID 0000.0001) // =======================================================
(PID.TID 0000.0001) // =======================================================
(PID.TID 0000.0001) // Begin OBCS MONITOR field statistics
(PID.TID 0000.0001) // =======================================================
(PID.TID 0000.0001) %MON obc_N_vVel_max               =   1.5371071857990E-05
(PID.TID 0000.0001) %MON obc_N_vVel_min               =   1.5371071857990E-05
(PID.TID 0000.0001) %MON obc_N_vVel_mean              =   1.5371071857990E-05
(PID.TID 0000.0001) %MON obc_N_vVel_sd                =   2.3519715870836E-12
(PID.TID 0000.0001) %MON obc_N_vVel_Int               =   1.0144907426274E+03
(PID.TID 0000.0001) // =======================================================
(PID.TID 0000.0001) // End OBCS MONITOR field statistics
(PID.TID 0000.0001) // =======================================================
 cg2d: Sum(rhs),rhsMax =   4.52265467471748E+00  2.99872567487275E+02
(PID.TID 0000.0001)      cg2d_init_res =   7.85599981899110E-06
(PID.TID 0000.0001)      cg2d_iters(min,last) =      -1      75
(PID.TID 0000.0001)      cg2d_last_res =   9.25289764333744E-12
(PID.TID 0000.0001) // =======================================================
(PID.TID 0000.0001) // Begin MONITOR dynamic field statistics
(PID.TID 0000.0001) // =======================================================
(PID.TID 0000.0001) %MON time_tsnumber                =                   240
(PID.TID 0000.0001) %MON time_secondsf                =   2.4000000000000E+04
(PID.TID 0000.0001) %MON dynstat_eta_max              =   5.7941869718071E+00
(PID.TID 0000.0001) %MON dynstat_eta_min              =  -1.4199675805296E+01
(PID.TID 0000.0001) %MON dynstat_eta_mean             =  -2.5115186466034E+00
(PID.TID 0000.0001) %MON dynstat_eta_sd               =   4.9525626587486E+00
(PID.TID 0000.0001) %MON dynstat_eta_del2             =   2.0714023586735E-01
(PID.TID 0000.0001) %MON dynstat_uvel_max             =   2.5735778836431E-03
(PID.TID 0000.0001) %MON dynstat_uvel_min             =  -3.0366889361240E-03
(PID.TID 0000.0001) %MON dynstat_uvel_mean            =  -1.1844032719047E-07
(PID.TID 0000.0001) %MON dynstat_uvel_sd              =   9.5467228813484E-05
(PID.TID 0000.0001) %MON dynstat_uvel_del2            =   3.5252514100957E-07
(PID.TID 0000.0001) %MON dynstat_vvel_max             =   4.1592886660009E-03
(PID.TID 0000.0001) %MON dynstat_vvel_min             =  -3.1933530364316E-03
(PID.TID 0000.0001) %MON dynstat_vvel_mean            =   1.5860785943246E-05
(PID.TID 0000.0001) %MON dynstat_vvel_sd              =   1.3656165128433E-04
(PID.TID 0000.0001) %MON dynstat_vvel_del2            =   5.2666093004712E-07
(PID.TID 0000.0001) %MON dynstat_wvel_max             =   2.1594738513677E-04
(PID.TID 0000.0001) %MON dynstat_wvel_min             =  -1.9985968518068E-04
(PID.TID 0000.0001) %MON dynstat_wvel_mean            =   8.3298890490527E-09
(PID.TID 0000.0001) %MON dynstat_wvel_sd              =   3.9022554590448E-05
(PID.TID 0000.0001) %MON dynstat_wvel_del2            =   1.9800389066211E-07
(PID.TID 0000.0001) %MON dynstat_theta_max            =   1.2000000000000E+00
(PID.TID 0000.0001) %MON dynstat_theta_min            =  -1.0000000000000E+00
(PID.TID 0000.0001) %MON dynstat_theta_mean           =   5.6909627732280E-01
(PID.TID 0000.0001) %MON dynstat_theta_sd             =   8.6857997852944E-01
(PID.TID 0000.0001) %MON dynstat_theta_del2           =   1.4392477926478E-06
(PID.TID 0000.0001) %MON dynstat_salt_max             =   3.4700000000000E+01
(PID.TID 0000.0001) %MON dynstat_salt_min             =   3.4000000000000E+01
(PID.TID 0000.0001) %MON dynstat_salt_mean            =   3.4499252657774E+01
(PID.TID 0000.0001) %MON dynstat_salt_sd              =   2.7636499143883E-01
(PID.TID 0000.0001) %MON dynstat_salt_del2            =   4.6476145349772E-07
(PID.TID 0000.0001) %MON advcfl_uvel_max              =   3.0366889361240E-04
(PID.TID 0000.0001) %MON advcfl_vvel_max              =   4.1592886660009E-04
(PID.TID 0000.0001) %MON advcfl_wvel_max              =   1.0797369256839E-03
(PID.TID 0000.0001) %MON advcfl_W_hf_max              =   1.0797369256839E-03
(PID.TID 0000.0001) %MON pe_b_mean                    =  -8.3201071865448E-01
(PID.TID 0000.0001) %MON ke_max                       =   7.2037327519827E-06
(PID.TID 0000.0001) %MON ke_mean                      =   1.3915293260930E-08
(PID.TID 0000.0001) %MON ke_vol                       =   4.2725416680792E+12
(PID.TID 0000.0001) // =======================================================
(PID.TID 0000.0001) // End MONITOR dynamic field statistics
(PID.TID 0000.0001) // =======================================================
(PID.TID 0000.0001) // =======================================================
(PID.TID 0000.0001) // Begin OBCS MONITOR field statistics
(PID.TID 0000.0001) // =======================================================
(PID.TID 0000.0001) %MON obc_N_vVel_max               =   1.5444591216127E-05
(PID.TID 0000.0001) %MON obc_N_vVel_min               =   1.5444591216127E-05
(PID.TID 0000.0001) %MON obc_N_vVel_mean              =   1.5444591216127E-05
(PID.TID 0000.0001) %MON obc_N_vVel_sd                =   8.8061445835761E-13
(PID.TID 0000.0001) %MON obc_N_vVel_Int               =   1.0193430202644E+03
(PID.TID 0000.0001) // =======================================================
(PID.TID 0000.0001) // End OBCS MONITOR field statistics
(PID.TID 0000.0001) // =======================================================
 cg2d: Sum(rhs),rhsMax =   4.52268050572473E+00  2.99872647228375E+02
(PID.TID 0000.0001)      cg2d_init_res =   7.84022446750300E-06
(PID.TID 0000.0001)      cg2d_iters(min,last) =      -1      75
(PID.TID 0000.0001)      cg2d_last_res =   9.12337284512187E-12
(PID.TID 0000.0001) // =======================================================
(PID.TID 0000.0001) // Begin MONITOR dynamic field statistics
(PID.TID 0000.0001) // =======================================================
(PID.TID 0000.0001) %MON time_tsnumber                =                   241
(PID.TID 0000.0001) %MON time_secondsf                =   2.4100000000000E+04
(PID.TID 0000.0001) %MON dynstat_eta_max              =   5.7941729975956E+00
(PID.TID 0000.0001) %MON dynstat_eta_min              =  -1.4199709814195E+01
(PID.TID 0000.0001) %MON dynstat_eta_mean             =  -2.5115336589256E+00
(PID.TID 0000.0001) %MON dynstat_eta_sd               =   4.9525676115156E+00
(PID.TID 0000.0001) %MON dynstat_eta_del2             =   2.0714023786317E-01
(PID.TID 0000.0001) %MON dynstat_uvel_max             =   2.5689260896815E-03
(PID.TID 0000.0001) %MON dynstat_uvel_min             =  -3.0358057436075E-03
(PID.TID 0000.0001) %MON dynstat_uvel_mean            =  -1.1702909941785E-07
(PID.TID 0000.0001) %MON dynstat_uvel_sd              =   9.5736327124147E-05
(PID.TID 0000.0001) %MON dynstat_uvel_del2            =   3.5184972664961E-07
(PID.TID 0000.0001) %MON dynstat_vvel_max             =   4.1636128199087E-03
(PID.TID 0000.0001) %MON dynstat_vvel_min             =  -3.1938480080571E-03
(PID.TID 0000.0001) %MON dynstat_vvel_mean            =   1.5896537918777E-05
(PID.TID 0000.0001) %MON dynstat_vvel_sd              =   1.3662403877115E-04
(PID.TID 0000.0001) %MON dynstat_vvel_del2            =   5.2525856139377E-07
(PID.TID 0000.0001) %MON dynstat_wvel_max             =   2.1560835309510E-04
(PID.TID 0000.0001) %MON dynstat_wvel_min             =  -1.9988298213560E-04
(PID.TID 0000.0001) %MON dynstat_wvel_mean            =   8.1541657214090E-09
(PID.TID 0000.0001) %MON dynstat_wvel_sd              =   3.8924267923700E-05
(PID.TID 0000.0001) %MON dynstat_wvel_del2            =   1.9728870936710E-07
(PID.TID 0000.0001) %MON dynstat_theta_max            =   1.2000000000000E+00
(PID.TID 0000.0001) %MON dynstat_theta_min            =  -1.0000000000000E+00
(PID.TID 0000.0001) %MON dynstat_theta_mean           =   5.6909601987065E-01
(PID.TID 0000.0001) %MON dynstat_theta_sd             =   8.6857984385912E-01
(PID.TID 0000.0001) %MON dynstat_theta_del2           =   1.4344664619108E-06
(PID.TID 0000.0001) %MON dynstat_salt_max             =   3.4700000000000E+01
(PID.TID 0000.0001) %MON dynstat_salt_min             =   3.4000000000000E+01
(PID.TID 0000.0001) %MON dynstat_salt_mean            =   3.4499252554673E+01
(PID.TID 0000.0001) %MON dynstat_salt_sd              =   2.7636494285611E-01
(PID.TID 0000.0001) %MON dynstat_salt_del2            =   4.6336118465824E-07
(PID.TID 0000.0001) %MON advcfl_uvel_max              =   3.0358057436075E-04
(PID.TID 0000.0001) %MON advcfl_vvel_max              =   4.1636128199087E-04
(PID.TID 0000.0001) %MON advcfl_wvel_max              =   1.0780417654755E-03
(PID.TID 0000.0001) %MON advcfl_W_hf_max              =   1.0780417654755E-03
(PID.TID 0000.0001) %MON pe_b_mean                    =  -8.3201504453198E-01
(PID.TID 0000.0001) %MON ke_max                       =   7.2355808766389E-06
(PID.TID 0000.0001) %MON ke_mean                      =   1.3949592221344E-08
(PID.TID 0000.0001) %MON ke_vol                       =   4.2725415792392E+12
(PID.TID 0000.0001) // =======================================================
(PID.TID 0000.0001) // End MONITOR dynamic field statistics
(PID.TID 0000.0001) // =======================================================
(PID.TID 0000.0001) // =======================================================
(PID.TID 0000.0001) // Begin OBCS MONITOR field statistics
(PID.TID 0000.0001) // =======================================================
(PID.TID 0000.0001) %MON obc_N_vVel_max               =   1.5495249919782E-05
(PID.TID 0000.0001) %MON obc_N_vVel_min               =   1.5495249919781E-05
(PID.TID 0000.0001) %MON obc_N_vVel_mean              =   1.5495249919781E-05
(PID.TID 0000.0001) %MON obc_N_vVel_sd                =   3.2871030941353E-12
(PID.TID 0000.0001) %MON obc_N_vVel_Int               =   1.0226864947055E+03
(PID.TID 0000.0001) // =======================================================
(PID.TID 0000.0001) // End OBCS MONITOR field statistics
(PID.TID 0000.0001) // =======================================================
 cg2d: Sum(rhs),rhsMax =   4.52270638924561E+00  2.99872727168926E+02
(PID.TID 0000.0001)      cg2d_init_res =   7.82511124654266E-06
(PID.TID 0000.0001)      cg2d_iters(min,last) =      -1      75
(PID.TID 0000.0001)      cg2d_last_res =   9.00378579087291E-12
(PID.TID 0000.0001) // =======================================================
(PID.TID 0000.0001) // Begin MONITOR dynamic field statistics
(PID.TID 0000.0001) // =======================================================
(PID.TID 0000.0001) %MON time_tsnumber                =                   242
(PID.TID 0000.0001) %MON time_secondsf                =   2.4200000000000E+04
(PID.TID 0000.0001) %MON dynstat_eta_max              =   5.7941590472323E+00
(PID.TID 0000.0001) %MON dynstat_eta_min              =  -1.4199743861338E+01
(PID.TID 0000.0001) %MON dynstat_eta_mean             =  -2.5115487020878E+00
(PID.TID 0000.0001) %MON dynstat_eta_sd               =   4.9525725540223E+00
(PID.TID 0000.0001) %MON dynstat_eta_del2             =   2.0714023985925E-01
(PID.TID 0000.0001) %MON dynstat_uvel_max             =   2.5641745899616E-03
(PID.TID 0000.0001) %MON dynstat_uvel_min             =  -3.0348241495979E-03
(PID.TID 0000.0001) %MON dynstat_uvel_mean            =  -1.1566428020206E-07
(PID.TID 0000.0001) %MON dynstat_uvel_sd              =   9.6007612637929E-05
(PID.TID 0000.0001) %MON dynstat_uvel_del2            =   3.5117614695880E-07
(PID.TID 0000.0001) %MON dynstat_vvel_max             =   4.1677710357124E-03
(PID.TID 0000.0001) %MON dynstat_vvel_min             =  -3.1942681131802E-03
(PID.TID 0000.0001) %MON dynstat_vvel_mean            =   1.5906187124741E-05
(PID.TID 0000.0001) %MON dynstat_vvel_sd              =   1.3669363568634E-04
(PID.TID 0000.0001) %MON dynstat_vvel_del2            =   5.2399532192791E-07
(PID.TID 0000.0001) %MON dynstat_wvel_max             =   2.1526275162365E-04
(PID.TID 0000.0001) %MON dynstat_wvel_min             =  -2.0036922231752E-04
(PID.TID 0000.0001) %MON dynstat_wvel_mean            =   7.9492788272413E-09
(PID.TID 0000.0001) %MON dynstat_wvel_sd              =   3.8837372008631E-05
(PID.TID 0000.0001) %MON dynstat_wvel_del2            =   1.9674362605113E-07
(PID.TID 0000.0001) %MON dynstat_theta_max            =   1.2000000000000E+00
(PID.TID 0000.0001) %MON dynstat_theta_min            =  -1.0000000000000E+00
(PID.TID 0000.0001) %MON dynstat_theta_mean           =   5.6909576240322E-01
(PID.TID 0000.0001) %MON dynstat_theta_sd             =   8.6857970931899E-01
(PID.TID 0000.0001) %MON dynstat_theta_del2           =   1.4295867663689E-06
(PID.TID 0000.0001) %MON dynstat_salt_max             =   3.4700000000000E+01
(PID.TID 0000.0001) %MON dynstat_salt_min             =   3.4000000000000E+01
(PID.TID 0000.0001) %MON dynstat_salt_mean            =   3.4499252451566E+01
(PID.TID 0000.0001) %MON dynstat_salt_sd              =   2.7636489431377E-01
(PID.TID 0000.0001) %MON dynstat_salt_del2            =   4.6193101793375E-07
(PID.TID 0000.0001) %MON advcfl_uvel_max              =   3.0348241495979E-04
(PID.TID 0000.0001) %MON advcfl_vvel_max              =   4.1677710357124E-04
(PID.TID 0000.0001) %MON advcfl_wvel_max              =   1.0763137581183E-03
(PID.TID 0000.0001) %MON advcfl_W_hf_max              =   1.0763137581183E-03
(PID.TID 0000.0001) %MON pe_b_mean                    =  -8.3201937135144E-01
(PID.TID 0000.0001) %MON ke_max                       =   7.2670670982519E-06
(PID.TID 0000.0001) %MON ke_mean                      =   1.3984745741214E-08
(PID.TID 0000.0001) %MON ke_vol                       =   4.2725414900660E+12
(PID.TID 0000.0001) // =======================================================
(PID.TID 0000.0001) // End MONITOR dynamic field statistics
(PID.TID 0000.0001) // =======================================================
(PID.TID 0000.0001) // =======================================================
(PID.TID 0000.0001) // Begin OBCS MONITOR field statistics
(PID.TID 0000.0001) // =======================================================
(PID.TID 0000.0001) %MON obc_N_vVel_max               =   1.5523182047624E-05
(PID.TID 0000.0001) %MON obc_N_vVel_min               =   1.5523182047624E-05
(PID.TID 0000.0001) %MON obc_N_vVel_mean              =   1.5523182047624E-05
(PID.TID 0000.0001) %MON obc_N_vVel_sd                =  -2.1248201984956E-23
(PID.TID 0000.0001) %MON obc_N_vVel_Int               =   1.0245300151432E+03
(PID.TID 0000.0001) // =======================================================
(PID.TID 0000.0001) // End OBCS MONITOR field statistics
(PID.TID 0000.0001) // =======================================================
 cg2d: Sum(rhs),rhsMax =   4.52273228200096E+00  2.99872807254845E+02
(PID.TID 0000.0001)      cg2d_init_res =   7.81104637403577E-06
(PID.TID 0000.0001)      cg2d_iters(min,last) =      -1      75
(PID.TID 0000.0001)      cg2d_last_res =   8.90709844400541E-12
(PID.TID 0000.0001) // =======================================================
(PID.TID 0000.0001) // Begin MONITOR dynamic field statistics
(PID.TID 0000.0001) // =======================================================
(PID.TID 0000.0001) %MON time_tsnumber                =                   243
(PID.TID 0000.0001) %MON time_secondsf                =   2.4300000000000E+04
(PID.TID 0000.0001) %MON dynstat_eta_max              =   5.7941451728118E+00
(PID.TID 0000.0001) %MON dynstat_eta_min              =  -1.4199777922823E+01
(PID.TID 0000.0001) %MON dynstat_eta_mean             =  -2.5115637516032E+00
(PID.TID 0000.0001) %MON dynstat_eta_sd               =   4.9525774792548E+00
(PID.TID 0000.0001) %MON dynstat_eta_del2             =   2.0714024185427E-01
(PID.TID 0000.0001) %MON dynstat_uvel_max             =   2.5593242204760E-03
(PID.TID 0000.0001) %MON dynstat_uvel_min             =  -3.0337449114874E-03
(PID.TID 0000.0001) %MON dynstat_uvel_mean            =  -1.1437714738434E-07
(PID.TID 0000.0001) %MON dynstat_uvel_sd              =   9.6281069116547E-05
(PID.TID 0000.0001) %MON dynstat_uvel_del2            =   3.5050454253662E-07
(PID.TID 0000.0001) %MON dynstat_vvel_max             =   4.1717658232159E-03
(PID.TID 0000.0001) %MON dynstat_vvel_min             =  -3.1946118279151E-03
(PID.TID 0000.0001) %MON dynstat_vvel_mean            =   1.5891094825817E-05
(PID.TID 0000.0001) %MON dynstat_vvel_sd              =   1.3677037421956E-04
(PID.TID 0000.0001) %MON dynstat_vvel_del2            =   5.2286604009828E-07
(PID.TID 0000.0001) %MON dynstat_wvel_max             =   2.1491063066208E-04
(PID.TID 0000.0001) %MON dynstat_wvel_min             =  -1.9903385956088E-04
(PID.TID 0000.0001) %MON dynstat_wvel_mean            =   7.7221545596319E-09
(PID.TID 0000.0001) %MON dynstat_wvel_sd              =   3.8761617778960E-05
(PID.TID 0000.0001) %MON dynstat_wvel_del2            =   1.9636038711020E-07
(PID.TID 0000.0001) %MON dynstat_theta_max            =   1.2000000000000E+00
(PID.TID 0000.0001) %MON dynstat_theta_min            =  -1.0000000000000E+00
(PID.TID 0000.0001) %MON dynstat_theta_mean           =   5.6909550490985E-01
(PID.TID 0000.0001) %MON dynstat_theta_sd             =   8.6857957492645E-01
(PID.TID 0000.0001) %MON dynstat_theta_del2           =   1.4246269492409E-06
(PID.TID 0000.0001) %MON dynstat_salt_max             =   3.4700000000000E+01
(PID.TID 0000.0001) %MON dynstat_salt_min             =   3.4000000000000E+01
(PID.TID 0000.0001) %MON dynstat_salt_mean            =   3.4499252348449E+01
(PID.TID 0000.0001) %MON dynstat_salt_sd              =   2.7636484581762E-01
(PID.TID 0000.0001) %MON dynstat_salt_del2            =   4.6047678865895E-07
(PID.TID 0000.0001) %MON advcfl_uvel_max              =   3.0337449114874E-04
(PID.TID 0000.0001) %MON advcfl_vvel_max              =   4.1717658232159E-04
(PID.TID 0000.0001) %MON advcfl_wvel_max              =   1.0745531533104E-03
(PID.TID 0000.0001) %MON advcfl_W_hf_max              =   1.0745531533104E-03
(PID.TID 0000.0001) %MON pe_b_mean                    =  -8.3202369297569E-01
(PID.TID 0000.0001) %MON ke_max                       =   7.2981960506108E-06
(PID.TID 0000.0001) %MON ke_mean                      =   1.4020767072868E-08
(PID.TID 0000.0001) %MON ke_vol                       =   4.2725414007096E+12
(PID.TID 0000.0001) // =======================================================
(PID.TID 0000.0001) // End MONITOR dynamic field statistics
(PID.TID 0000.0001) // =======================================================
(PID.TID 0000.0001) // =======================================================
(PID.TID 0000.0001) // Begin OBCS MONITOR field statistics
(PID.TID 0000.0001) // =======================================================
(PID.TID 0000.0001) %MON obc_N_vVel_max               =   1.5529081463141E-05
(PID.TID 0000.0001) %MON obc_N_vVel_min               =   1.5529081463141E-05
(PID.TID 0000.0001) %MON obc_N_vVel_mean              =   1.5529081463141E-05
(PID.TID 0000.0001) %MON obc_N_vVel_sd                =   4.4030722917880E-12
(PID.TID 0000.0001) %MON obc_N_vVel_Int               =   1.0249193765673E+03
(PID.TID 0000.0001) // =======================================================
(PID.TID 0000.0001) // End OBCS MONITOR field statistics
(PID.TID 0000.0001) // =======================================================
 cg2d: Sum(rhs),rhsMax =   4.52275814309596E+00  2.99872887433921E+02
(PID.TID 0000.0001)      cg2d_init_res =   7.79799755814836E-06
(PID.TID 0000.0001)      cg2d_iters(min,last) =      -1      74
(PID.TID 0000.0001)      cg2d_last_res =   9.97029018906405E-12
(PID.TID 0000.0001) // =======================================================
(PID.TID 0000.0001) // Begin MONITOR dynamic field statistics
(PID.TID 0000.0001) // =======================================================
(PID.TID 0000.0001) %MON time_tsnumber                =                   244
(PID.TID 0000.0001) %MON time_secondsf                =   2.4400000000000E+04
(PID.TID 0000.0001) %MON dynstat_eta_max              =   5.7941314219935E+00
(PID.TID 0000.0001) %MON dynstat_eta_min              =  -1.4199811976066E+01
(PID.TID 0000.0001) %MON dynstat_eta_mean             =  -2.5115787843249E+00
(PID.TID 0000.0001) %MON dynstat_eta_sd               =   4.9525823810738E+00
(PID.TID 0000.0001) %MON dynstat_eta_del2             =   2.0714024384763E-01
(PID.TID 0000.0001) %MON dynstat_uvel_max             =   2.5543758443209E-03
(PID.TID 0000.0001) %MON dynstat_uvel_min             =  -3.0325687757617E-03
(PID.TID 0000.0001) %MON dynstat_uvel_mean            =  -1.1319456817767E-07
(PID.TID 0000.0001) %MON dynstat_uvel_sd              =   9.6556680878193E-05
(PID.TID 0000.0001) %MON dynstat_uvel_del2            =   3.4983505060250E-07
(PID.TID 0000.0001) %MON dynstat_vvel_max             =   4.1756003153299E-03
(PID.TID 0000.0001) %MON dynstat_vvel_min             =  -3.1948770281218E-03
(PID.TID 0000.0001) %MON dynstat_vvel_mean            =   1.5853154085607E-05
(PID.TID 0000.0001) %MON dynstat_vvel_sd              =   1.3685332122228E-04
(PID.TID 0000.0001) %MON dynstat_vvel_del2            =   5.2184816109285E-07
(PID.TID 0000.0001) %MON dynstat_wvel_max             =   2.1455202807179E-04
(PID.TID 0000.0001) %MON dynstat_wvel_min             =  -2.0276693995394E-04
(PID.TID 0000.0001) %MON dynstat_wvel_mean            =   7.4798369763408E-09
(PID.TID 0000.0001) %MON dynstat_wvel_sd              =   3.8695315157607E-05
(PID.TID 0000.0001) %MON dynstat_wvel_del2            =   1.9610972556714E-07
(PID.TID 0000.0001) %MON dynstat_theta_max            =   1.2000000000000E+00
(PID.TID 0000.0001) %MON dynstat_theta_min            =  -1.0000000000000E+00
(PID.TID 0000.0001) %MON dynstat_theta_mean           =   5.6909524738116E-01
(PID.TID 0000.0001) %MON dynstat_theta_sd             =   8.6857944053980E-01
(PID.TID 0000.0001) %MON dynstat_theta_del2           =   1.4196218580858E-06
(PID.TID 0000.0001) %MON dynstat_salt_max             =   3.4700000000000E+01
(PID.TID 0000.0001) %MON dynstat_salt_min             =   3.4000000000000E+01
(PID.TID 0000.0001) %MON dynstat_salt_mean            =   3.4499252245318E+01
(PID.TID 0000.0001) %MON dynstat_salt_sd              =   2.7636479732231E-01
(PID.TID 0000.0001) %MON dynstat_salt_del2            =   4.5900950733679E-07
(PID.TID 0000.0001) %MON advcfl_uvel_max              =   3.0325687757617E-04
(PID.TID 0000.0001) %MON advcfl_vvel_max              =   4.1756003153299E-04
(PID.TID 0000.0001) %MON advcfl_wvel_max              =   1.0727601403589E-03
(PID.TID 0000.0001) %MON advcfl_W_hf_max              =   1.0727601403589E-03
(PID.TID 0000.0001) %MON pe_b_mean                    =  -8.3202800377373E-01
(PID.TID 0000.0001) %MON ke_max                       =   7.3289743643743E-06
(PID.TID 0000.0001) %MON ke_mean                      =   1.4057561416782E-08
(PID.TID 0000.0001) %MON ke_vol                       =   4.2725413113155E+12
(PID.TID 0000.0001) // =======================================================
(PID.TID 0000.0001) // End MONITOR dynamic field statistics
(PID.TID 0000.0001) // =======================================================
(PID.TID 0000.0001) // =======================================================
(PID.TID 0000.0001) // Begin OBCS MONITOR field statistics
(PID.TID 0000.0001) // =======================================================
(PID.TID 0000.0001) %MON obc_N_vVel_max               =   1.5514149356977E-05
(PID.TID 0000.0001) %MON obc_N_vVel_min               =   1.5514149356976E-05
(PID.TID 0000.0001) %MON obc_N_vVel_mean              =   1.5514149356977E-05
(PID.TID 0000.0001) %MON obc_N_vVel_sd                =  -1.4062070413401E-23
(PID.TID 0000.0001) %MON obc_N_vVel_Int               =   1.0239338575605E+03
(PID.TID 0000.0001) // =======================================================
(PID.TID 0000.0001) // End OBCS MONITOR field statistics
(PID.TID 0000.0001) // =======================================================
 cg2d: Sum(rhs),rhsMax =   4.52278393488704E+00  2.99872967656536E+02
(PID.TID 0000.0001)      cg2d_init_res =   7.78561494680884E-06
(PID.TID 0000.0001)      cg2d_iters(min,last) =      -1      74
(PID.TID 0000.0001)      cg2d_last_res =   9.86842751656975E-12
(PID.TID 0000.0001) // =======================================================
(PID.TID 0000.0001) // Begin MONITOR dynamic field statistics
(PID.TID 0000.0001) // =======================================================
(PID.TID 0000.0001) %MON time_tsnumber                =                   245
(PID.TID 0000.0001) %MON time_secondsf                =   2.4500000000000E+04
(PID.TID 0000.0001) %MON dynstat_eta_max              =   5.7941178344215E+00
(PID.TID 0000.0001) %MON dynstat_eta_min              =  -1.4199845999442E+01
(PID.TID 0000.0001) %MON dynstat_eta_mean             =  -2.5115937789331E+00
(PID.TID 0000.0001) %MON dynstat_eta_sd               =   4.9525872542659E+00
(PID.TID 0000.0001) %MON dynstat_eta_del2             =   2.0714024583781E-01
(PID.TID 0000.0001) %MON dynstat_uvel_max             =   2.5493303421857E-03
(PID.TID 0000.0001) %MON dynstat_uvel_min             =  -3.0312964865153E-03
(PID.TID 0000.0001) %MON dynstat_uvel_mean            =  -1.1213994986650E-07
(PID.TID 0000.0001) %MON dynstat_uvel_sd              =   9.6834433021392E-05
(PID.TID 0000.0001) %MON dynstat_uvel_del2            =   3.4916780455937E-07
(PID.TID 0000.0001) %MON dynstat_vvel_max             =   4.1792781694028E-03
(PID.TID 0000.0001) %MON dynstat_vvel_min             =  -3.1950610175455E-03
(PID.TID 0000.0001) %MON dynstat_vvel_mean            =   1.5794709747788E-05
(PID.TID 0000.0001) %MON dynstat_vvel_sd              =   1.3694083025989E-04
(PID.TID 0000.0001) %MON dynstat_vvel_del2            =   5.2090526211648E-07
(PID.TID 0000.0001) %MON dynstat_wvel_max             =   2.1418698848715E-04
(PID.TID 0000.0001) %MON dynstat_wvel_min             =  -2.1155335180964E-04
(PID.TID 0000.0001) %MON dynstat_wvel_mean            =   7.2292785007770E-09
(PID.TID 0000.0001) %MON dynstat_wvel_sd              =   3.8635593875054E-05
(PID.TID 0000.0001) %MON dynstat_wvel_del2            =   1.9594588219997E-07
(PID.TID 0000.0001) %MON dynstat_theta_max            =   1.2000000000000E+00
(PID.TID 0000.0001) %MON dynstat_theta_min            =  -1.0000000000000E+00
(PID.TID 0000.0001) %MON dynstat_theta_mean           =   5.6909498980818E-01
(PID.TID 0000.0001) %MON dynstat_theta_sd             =   8.6857930614379E-01
(PID.TID 0000.0001) %MON dynstat_theta_del2           =   1.4146141043620E-06
(PID.TID 0000.0001) %MON dynstat_salt_max             =   3.4700000000000E+01
(PID.TID 0000.0001) %MON dynstat_salt_min             =   3.4000000000000E+01
(PID.TID 0000.0001) %MON dynstat_salt_mean            =   3.4499252142171E+01
(PID.TID 0000.0001) %MON dynstat_salt_sd              =   2.7636474882287E-01
(PID.TID 0000.0001) %MON dynstat_salt_del2            =   4.5754256396177E-07
(PID.TID 0000.0001) %MON advcfl_uvel_max              =   3.0312964865153E-04
(PID.TID 0000.0001) %MON advcfl_vvel_max              =   4.1792781694028E-04
(PID.TID 0000.0001) %MON advcfl_wvel_max              =   1.0709349424357E-03
(PID.TID 0000.0001) %MON advcfl_W_hf_max              =   1.0709349424357E-03
(PID.TID 0000.0001) %MON pe_b_mean                    =  -8.3203229872605E-01
(PID.TID 0000.0001) %MON ke_max                       =   7.3594103928712E-06
(PID.TID 0000.0001) %MON ke_mean                      =   1.4094944633077E-08
(PID.TID 0000.0001) %MON ke_vol                       =   4.2725412220211E+12
(PID.TID 0000.0001) // =======================================================
(PID.TID 0000.0001) // End MONITOR dynamic field statistics
(PID.TID 0000.0001) // =======================================================
(PID.TID 0000.0001) // =======================================================
(PID.TID 0000.0001) // Begin OBCS MONITOR field statistics
(PID.TID 0000.0001) // =======================================================
(PID.TID 0000.0001) %MON obc_N_vVel_max               =   1.5480033354827E-05
(PID.TID 0000.0001) %MON obc_N_vVel_min               =   1.5480033354827E-05
(PID.TID 0000.0001) %MON obc_N_vVel_mean              =   1.5480033354827E-05
(PID.TID 0000.0001) %MON obc_N_vVel_sd                =  -2.5694297777428E-23
(PID.TID 0000.0001) %MON obc_N_vVel_Int               =   1.0216822014186E+03
(PID.TID 0000.0001) // =======================================================
(PID.TID 0000.0001) // End OBCS MONITOR field statistics
(PID.TID 0000.0001) // =======================================================
 cg2d: Sum(rhs),rhsMax =   4.52280962369581E+00  2.99873047878459E+02
(PID.TID 0000.0001)      cg2d_init_res =   7.77310832441163E-06
(PID.TID 0000.0001)      cg2d_iters(min,last) =      -1      74
(PID.TID 0000.0001)      cg2d_last_res =   9.79798692171825E-12
(PID.TID 0000.0001) // =======================================================
(PID.TID 0000.0001) // Begin MONITOR dynamic field statistics
(PID.TID 0000.0001) // =======================================================
(PID.TID 0000.0001) %MON time_tsnumber                =                   246
(PID.TID 0000.0001) %MON time_secondsf                =   2.4600000000000E+04
(PID.TID 0000.0001) %MON dynstat_eta_max              =   5.7941044453186E+00
(PID.TID 0000.0001) %MON dynstat_eta_min              =  -1.4199879974052E+01
(PID.TID 0000.0001) %MON dynstat_eta_mean             =  -2.5116087163550E+00
(PID.TID 0000.0001) %MON dynstat_eta_sd               =   4.9525920946806E+00
(PID.TID 0000.0001) %MON dynstat_eta_del2             =   2.0714024782458E-01
(PID.TID 0000.0001) %MON dynstat_uvel_max             =   2.5441886173638E-03
(PID.TID 0000.0001) %MON dynstat_uvel_min             =  -3.0299287690418E-03
(PID.TID 0000.0001) %MON dynstat_uvel_mean            =  -1.1123123003856E-07
(PID.TID 0000.0001) %MON dynstat_uvel_sd              =   9.7114312070631E-05
(PID.TID 0000.0001) %MON dynstat_uvel_del2            =   3.4850293463356E-07
(PID.TID 0000.0001) %MON dynstat_vvel_max             =   4.1828034376223E-03
(PID.TID 0000.0001) %MON dynstat_vvel_min             =  -3.1951608026173E-03
(PID.TID 0000.0001) %MON dynstat_vvel_mean            =   1.5718471898173E-05
(PID.TID 0000.0001) %MON dynstat_vvel_sd              =   1.3703078641505E-04
(PID.TID 0000.0001) %MON dynstat_vvel_del2            =   5.1999233709569E-07
(PID.TID 0000.0001) %MON dynstat_wvel_max             =   2.1381553041197E-04
(PID.TID 0000.0001) %MON dynstat_wvel_min             =  -2.2115064551995E-04
(PID.TID 0000.0001) %MON dynstat_wvel_mean            =   6.9772508334897E-09
(PID.TID 0000.0001) %MON dynstat_wvel_sd              =   3.8578819087870E-05
(PID.TID 0000.0001) %MON dynstat_wvel_del2            =   1.9581326595824E-07
(PID.TID 0000.0001) %MON dynstat_theta_max            =   1.2000000000000E+00
(PID.TID 0000.0001) %MON dynstat_theta_min            =  -1.0000000000000E+00
(PID.TID 0000.0001) %MON dynstat_theta_mean           =   5.6909473218301E-01
(PID.TID 0000.0001) %MON dynstat_theta_sd             =   8.6857917177012E-01
(PID.TID 0000.0001) %MON dynstat_theta_del2           =   1.4096532702661E-06
(PID.TID 0000.0001) %MON dynstat_salt_max             =   3.4700000000000E+01
(PID.TID 0000.0001) %MON dynstat_salt_min             =   3.4000000000000E+01
(PID.TID 0000.0001) %MON dynstat_salt_mean            =   3.4499252039006E+01
(PID.TID 0000.0001) %MON dynstat_salt_sd              =   2.7636470032961E-01
(PID.TID 0000.0001) %MON dynstat_salt_del2            =   4.5609162862508E-07
(PID.TID 0000.0001) %MON advcfl_uvel_max              =   3.0299287690418E-04
(PID.TID 0000.0001) %MON advcfl_vvel_max              =   4.1828034376223E-04
(PID.TID 0000.0001) %MON advcfl_wvel_max              =   1.1057532275997E-03
(PID.TID 0000.0001) %MON advcfl_W_hf_max              =   1.1057532275997E-03
(PID.TID 0000.0001) %MON pe_b_mean                    =  -8.3203657351400E-01
(PID.TID 0000.0001) %MON ke_max                       =   7.3895137611925E-06
(PID.TID 0000.0001) %MON ke_mean                      =   1.4132674530145E-08
(PID.TID 0000.0001) %MON ke_vol                       =   4.2725411329531E+12
(PID.TID 0000.0001) // =======================================================
(PID.TID 0000.0001) // End MONITOR dynamic field statistics
(PID.TID 0000.0001) // =======================================================
(PID.TID 0000.0001) // =======================================================
(PID.TID 0000.0001) // Begin OBCS MONITOR field statistics
(PID.TID 0000.0001) // =======================================================
(PID.TID 0000.0001) %MON obc_N_vVel_max               =   1.5428755066554E-05
(PID.TID 0000.0001) %MON obc_N_vVel_min               =   1.5428755066553E-05
(PID.TID 0000.0001) %MON obc_N_vVel_mean              =   1.5428755066554E-05
(PID.TID 0000.0001) %MON obc_N_vVel_sd                =  -1.4372263143109E-23
(PID.TID 0000.0001) %MON obc_N_vVel_Int               =   1.0182978343925E+03
(PID.TID 0000.0001) // =======================================================
(PID.TID 0000.0001) // End OBCS MONITOR field statistics
(PID.TID 0000.0001) // =======================================================
 cg2d: Sum(rhs),rhsMax =   4.52283518044862E+00  2.99873128058954E+02
(PID.TID 0000.0001)      cg2d_init_res =   7.75965759048564E-06
(PID.TID 0000.0001)      cg2d_iters(min,last) =      -1      74
(PID.TID 0000.0001)      cg2d_last_res =   9.74899817142663E-12
(PID.TID 0000.0001) // =======================================================
(PID.TID 0000.0001) // Begin MONITOR dynamic field statistics
(PID.TID 0000.0001) // =======================================================
(PID.TID 0000.0001) %MON time_tsnumber                =                   247
(PID.TID 0000.0001) %MON time_secondsf                =   2.4700000000000E+04
(PID.TID 0000.0001) %MON dynstat_eta_max              =   5.7940912821353E+00
(PID.TID 0000.0001) %MON dynstat_eta_min              =  -1.4199913883215E+01
(PID.TID 0000.0001) %MON dynstat_eta_mean             =  -2.5116235801041E+00
(PID.TID 0000.0001) %MON dynstat_eta_sd               =   4.9525968992354E+00
(PID.TID 0000.0001) %MON dynstat_eta_del2             =   2.0714024980809E-01
(PID.TID 0000.0001) %MON dynstat_uvel_max             =   2.5389515904450E-03
(PID.TID 0000.0001) %MON dynstat_uvel_min             =  -3.0303130688107E-03
(PID.TID 0000.0001) %MON dynstat_uvel_mean            =  -1.1048165847388E-07
(PID.TID 0000.0001) %MON dynstat_uvel_sd              =   9.7396306224368E-05
(PID.TID 0000.0001) %MON dynstat_uvel_del2            =   3.4784056600484E-07
(PID.TID 0000.0001) %MON dynstat_vvel_max             =   4.1861804664762E-03
(PID.TID 0000.0001) %MON dynstat_vvel_min             =  -3.1951730398454E-03
(PID.TID 0000.0001) %MON dynstat_vvel_mean            =   1.5627427063374E-05
(PID.TID 0000.0001) %MON dynstat_vvel_sd              =   1.3712090573606E-04
(PID.TID 0000.0001) %MON dynstat_vvel_del2            =   5.1906204844960E-07
(PID.TID 0000.0001) %MON dynstat_wvel_max             =   2.1551960302180E-04
(PID.TID 0000.0001) %MON dynstat_wvel_min             =  -2.2694411742587E-04
(PID.TID 0000.0001) %MON dynstat_wvel_mean            =   6.7301019101779E-09
(PID.TID 0000.0001) %MON dynstat_wvel_sd              =   3.8521094538834E-05
(PID.TID 0000.0001) %MON dynstat_wvel_del2            =   1.9565414729204E-07
(PID.TID 0000.0001) %MON dynstat_theta_max            =   1.2000000000000E+00
(PID.TID 0000.0001) %MON dynstat_theta_min            =  -1.0000000000000E+00
(PID.TID 0000.0001) %MON dynstat_theta_mean           =   5.6909447449865E-01
(PID.TID 0000.0001) %MON dynstat_theta_sd             =   8.6857903733502E-01
(PID.TID 0000.0001) %MON dynstat_theta_del2           =   1.4047875103269E-06
(PID.TID 0000.0001) %MON dynstat_salt_max             =   3.4700000000000E+01
(PID.TID 0000.0001) %MON dynstat_salt_min             =   3.4000000000000E+01
(PID.TID 0000.0001) %MON dynstat_salt_mean            =   3.4499251935819E+01
(PID.TID 0000.0001) %MON dynstat_salt_sd              =   2.7636465181547E-01
(PID.TID 0000.0001) %MON dynstat_salt_del2            =   4.5467171308073E-07
(PID.TID 0000.0001) %MON advcfl_uvel_max              =   3.0303130688107E-04
(PID.TID 0000.0001) %MON advcfl_vvel_max              =   4.1861804664762E-04
(PID.TID 0000.0001) %MON advcfl_wvel_max              =   1.1347205871294E-03
(PID.TID 0000.0001) %MON advcfl_W_hf_max              =   1.1347205871294E-03
(PID.TID 0000.0001) %MON pe_b_mean                    =  -8.3204082458393E-01
(PID.TID 0000.0001) %MON ke_max                       =   7.4192951056212E-06
(PID.TID 0000.0001) %MON ke_mean                      =   1.4170489676716E-08
(PID.TID 0000.0001) %MON ke_vol                       =   4.2725410442249E+12
(PID.TID 0000.0001) // =======================================================
(PID.TID 0000.0001) // End MONITOR dynamic field statistics
(PID.TID 0000.0001) // =======================================================
(PID.TID 0000.0001) // =======================================================
(PID.TID 0000.0001) // Begin OBCS MONITOR field statistics
(PID.TID 0000.0001) // =======================================================
(PID.TID 0000.0001) %MON obc_N_vVel_max               =   1.5362644155474E-05
(PID.TID 0000.0001) %MON obc_N_vVel_min               =   1.5362644155474E-05
(PID.TID 0000.0001) %MON obc_N_vVel_mean              =   1.5362644155474E-05
(PID.TID 0000.0001) %MON obc_N_vVel_sd                =   3.0505379675102E-12
(PID.TID 0000.0001) %MON obc_N_vVel_Int               =   1.0139345142613E+03
(PID.TID 0000.0001) // =======================================================
(PID.TID 0000.0001) // End OBCS MONITOR field statistics
(PID.TID 0000.0001) // =======================================================
 cg2d: Sum(rhs),rhsMax =   4.52286058110417E+00  2.99873208162990E+02
(PID.TID 0000.0001)      cg2d_init_res =   7.74442848980842E-06
(PID.TID 0000.0001)      cg2d_iters(min,last) =      -1      74
(PID.TID 0000.0001)      cg2d_last_res =   9.73279371566110E-12
(PID.TID 0000.0001) // =======================================================
(PID.TID 0000.0001) // Begin MONITOR dynamic field statistics
(PID.TID 0000.0001) // =======================================================
(PID.TID 0000.0001) %MON time_tsnumber                =                   248
(PID.TID 0000.0001) %MON time_secondsf                =   2.4800000000000E+04
(PID.TID 0000.0001) %MON dynstat_eta_max              =   5.7940783650332E+00
(PID.TID 0000.0001) %MON dynstat_eta_min              =  -1.4199947712970E+01
(PID.TID 0000.0001) %MON dynstat_eta_mean             =  -2.5116383565363E+00
(PID.TID 0000.0001) %MON dynstat_eta_sd               =   4.9526016659209E+00
(PID.TID 0000.0001) %MON dynstat_eta_del2             =   2.0714025178798E-01
(PID.TID 0000.0001) %MON dynstat_uvel_max             =   2.5336201916684E-03
(PID.TID 0000.0001) %MON dynstat_uvel_min             =  -3.0315049539311E-03
(PID.TID 0000.0001) %MON dynstat_uvel_mean            =  -1.0989975463767E-07
(PID.TID 0000.0001) %MON dynstat_uvel_sd              =   9.7680405370220E-05
(PID.TID 0000.0001) %MON dynstat_uvel_del2            =   3.4718081676374E-07
(PID.TID 0000.0001) %MON dynstat_vvel_max             =   4.1894137756255E-03
(PID.TID 0000.0001) %MON dynstat_vvel_min             =  -3.1950942337158E-03
(PID.TID 0000.0001) %MON dynstat_vvel_mean            =   1.5524747629244E-05
(PID.TID 0000.0001) %MON dynstat_vvel_sd              =   1.3720904644946E-04
(PID.TID 0000.0001) %MON dynstat_vvel_del2            =   5.1807106440904E-07
(PID.TID 0000.0001) %MON dynstat_wvel_max             =   2.1481039012386E-04
(PID.TID 0000.0001) %MON dynstat_wvel_min             =  -2.2882536760911E-04
(PID.TID 0000.0001) %MON dynstat_wvel_mean            =   6.4936777542153E-09
(PID.TID 0000.0001) %MON dynstat_wvel_sd              =   3.8458782436072E-05
(PID.TID 0000.0001) %MON dynstat_wvel_del2            =   1.9541626727783E-07
(PID.TID 0000.0001) %MON dynstat_theta_max            =   1.2000000000000E+00
(PID.TID 0000.0001) %MON dynstat_theta_min            =  -1.0000000000000E+00
(PID.TID 0000.0001) %MON dynstat_theta_mean           =   5.6909421674960E-01
(PID.TID 0000.0001) %MON dynstat_theta_sd             =   8.6857890283309E-01
(PID.TID 0000.0001) %MON dynstat_theta_del2           =   1.4000570577751E-06
(PID.TID 0000.0001) %MON dynstat_salt_max             =   3.4700000000000E+01
(PID.TID 0000.0001) %MON dynstat_salt_min             =   3.4000000000000E+01
(PID.TID 0000.0001) %MON dynstat_salt_mean            =   3.4499251832610E+01
(PID.TID 0000.0001) %MON dynstat_salt_sd              =   2.7636460327896E-01
(PID.TID 0000.0001) %MON dynstat_salt_del2            =   4.5329544831979E-07
(PID.TID 0000.0001) %MON advcfl_uvel_max              =   3.0315049539311E-04
(PID.TID 0000.0001) %MON advcfl_vvel_max              =   4.1894137756255E-04
(PID.TID 0000.0001) %MON advcfl_wvel_max              =   1.1441268380456E-03
(PID.TID 0000.0001) %MON advcfl_W_hf_max              =   1.1441268380456E-03
(PID.TID 0000.0001) %MON pe_b_mean                    =  -8.3204504918884E-01
(PID.TID 0000.0001) %MON ke_max                       =   7.4487656731322E-06
(PID.TID 0000.0001) %MON ke_mean                      =   1.4208150016578E-08
(PID.TID 0000.0001) %MON ke_vol                       =   4.2725409559342E+12
(PID.TID 0000.0001) // =======================================================
(PID.TID 0000.0001) // End MONITOR dynamic field statistics
(PID.TID 0000.0001) // =======================================================
(PID.TID 0000.0001) // =======================================================
(PID.TID 0000.0001) // Begin OBCS MONITOR field statistics
(PID.TID 0000.0001) // =======================================================
(PID.TID 0000.0001) %MON obc_N_vVel_max               =   1.5284256452569E-05
(PID.TID 0000.0001) %MON obc_N_vVel_min               =   1.5284256452568E-05
(PID.TID 0000.0001) %MON obc_N_vVel_mean              =   1.5284256452568E-05
(PID.TID 0000.0001) %MON obc_N_vVel_sd                =   2.0589562014123E-12
(PID.TID 0000.0001) %MON obc_N_vVel_Int               =   1.0087609258695E+03
(PID.TID 0000.0001) // =======================================================
(PID.TID 0000.0001) // End OBCS MONITOR field statistics
(PID.TID 0000.0001) // =======================================================
 cg2d: Sum(rhs),rhsMax =   4.52288580693550E+00  2.99873288161473E+02
(PID.TID 0000.0001)      cg2d_init_res =   7.72676124131267E-06
(PID.TID 0000.0001)      cg2d_iters(min,last) =      -1      74
(PID.TID 0000.0001)      cg2d_last_res =   9.72309926359601E-12
(PID.TID 0000.0001) // =======================================================
(PID.TID 0000.0001) // Begin MONITOR dynamic field statistics
(PID.TID 0000.0001) // =======================================================
(PID.TID 0000.0001) %MON time_tsnumber                =                   249
(PID.TID 0000.0001) %MON time_secondsf                =   2.4900000000000E+04
(PID.TID 0000.0001) %MON dynstat_eta_max              =   5.7940657068636E+00
(PID.TID 0000.0001) %MON dynstat_eta_min              =  -1.4199981452234E+01
(PID.TID 0000.0001) %MON dynstat_eta_mean             =  -2.5116530350085E+00
(PID.TID 0000.0001) %MON dynstat_eta_sd               =   4.9526063937917E+00
(PID.TID 0000.0001) %MON dynstat_eta_del2             =   2.0714025376398E-01
(PID.TID 0000.0001) %MON dynstat_uvel_max             =   2.5281953592096E-03
(PID.TID 0000.0001) %MON dynstat_uvel_min             =  -3.0326261024882E-03
(PID.TID 0000.0001) %MON dynstat_uvel_mean            =  -1.0948941418862E-07
(PID.TID 0000.0001) %MON dynstat_uvel_sd              =   9.7966601311460E-05
(PID.TID 0000.0001) %MON dynstat_uvel_del2            =   3.4652379862843E-07
(PID.TID 0000.0001) %MON dynstat_vvel_max             =   4.1925079457545E-03
(PID.TID 0000.0001) %MON dynstat_vvel_min             =  -3.1949208327040E-03
(PID.TID 0000.0001) %MON dynstat_vvel_mean            =   1.5413702614682E-05
(PID.TID 0000.0001) %MON dynstat_vvel_sd              =   1.3729349090280E-04
(PID.TID 0000.0001) %MON dynstat_vvel_del2            =   5.1698565870950E-07
(PID.TID 0000.0001) %MON dynstat_wvel_max             =   2.1266289495591E-04
(PID.TID 0000.0001) %MON dynstat_wvel_min             =  -2.2675596215541E-04
(PID.TID 0000.0001) %MON dynstat_wvel_mean            =   6.2732013786006E-09
(PID.TID 0000.0001) %MON dynstat_wvel_sd              =   3.8388972462929E-05
(PID.TID 0000.0001) %MON dynstat_wvel_del2            =   1.9505939041251E-07
(PID.TID 0000.0001) %MON dynstat_theta_max            =   1.2000000000000E+00
(PID.TID 0000.0001) %MON dynstat_theta_min            =  -1.0000000000000E+00
(PID.TID 0000.0001) %MON dynstat_theta_mean           =   5.6909395893087E-01
(PID.TID 0000.0001) %MON dynstat_theta_sd             =   8.6857876831203E-01
(PID.TID 0000.0001) %MON dynstat_theta_del2           =   1.3954899236558E-06
(PID.TID 0000.0001) %MON dynstat_salt_max             =   3.4700000000000E+01
(PID.TID 0000.0001) %MON dynstat_salt_min             =   3.4000000000000E+01
(PID.TID 0000.0001) %MON dynstat_salt_mean            =   3.4499251729376E+01
(PID.TID 0000.0001) %MON dynstat_salt_sd              =   2.7636455473503E-01
(PID.TID 0000.0001) %MON dynstat_salt_del2            =   4.5197153663944E-07
(PID.TID 0000.0001) %MON advcfl_uvel_max              =   3.0326261024882E-04
(PID.TID 0000.0001) %MON advcfl_vvel_max              =   4.1925079457545E-04
(PID.TID 0000.0001) %MON advcfl_wvel_max              =   1.1337798107771E-03
(PID.TID 0000.0001) %MON advcfl_W_hf_max              =   1.1337798107771E-03
(PID.TID 0000.0001) %MON pe_b_mean                    =  -8.3204924540600E-01
(PID.TID 0000.0001) %MON ke_max                       =   7.4779369695546E-06
(PID.TID 0000.0001) %MON ke_mean                      =   1.4245473816323E-08
(PID.TID 0000.0001) %MON ke_vol                       =   4.2725408681622E+12
(PID.TID 0000.0001) // =======================================================
(PID.TID 0000.0001) // End MONITOR dynamic field statistics
(PID.TID 0000.0001) // =======================================================
(PID.TID 0000.0001) // =======================================================
(PID.TID 0000.0001) // Begin OBCS MONITOR field statistics
(PID.TID 0000.0001) // =======================================================
(PID.TID 0000.0001) %MON obc_N_vVel_max               =   1.5196298430605E-05
(PID.TID 0000.0001) %MON obc_N_vVel_min               =   1.5196298430604E-05
(PID.TID 0000.0001) %MON obc_N_vVel_mean              =   1.5196298430604E-05
(PID.TID 0000.0001) %MON obc_N_vVel_sd                =  -1.0339757656913E-24
(PID.TID 0000.0001) %MON obc_N_vVel_Int               =   1.0029556964199E+03
(PID.TID 0000.0001) // =======================================================
(PID.TID 0000.0001) // End OBCS MONITOR field statistics
(PID.TID 0000.0001) // =======================================================
 cg2d: Sum(rhs),rhsMax =   4.52291084470696E+00  2.99873368031348E+02
(PID.TID 0000.0001)      cg2d_init_res =   7.70630242901771E-06
(PID.TID 0000.0001)      cg2d_iters(min,last) =      -1      74
(PID.TID 0000.0001)      cg2d_last_res =   9.69704659473239E-12
(PID.TID 0000.0001) // =======================================================
(PID.TID 0000.0001) // Begin MONITOR dynamic field statistics
(PID.TID 0000.0001) // =======================================================
(PID.TID 0000.0001) %MON time_tsnumber                =                   250
(PID.TID 0000.0001) %MON time_secondsf                =   2.5000000000000E+04
(PID.TID 0000.0001) %MON dynstat_eta_max              =   5.7940533132699E+00
(PID.TID 0000.0001) %MON dynstat_eta_min              =  -1.4200015092939E+01
(PID.TID 0000.0001) %MON dynstat_eta_mean             =  -2.5116676079774E+00
(PID.TID 0000.0001) %MON dynstat_eta_sd               =   4.9526110829348E+00
(PID.TID 0000.0001) %MON dynstat_eta_del2             =   2.0714025573597E-01
(PID.TID 0000.0001) %MON dynstat_uvel_max             =   2.5226780351577E-03
(PID.TID 0000.0001) %MON dynstat_uvel_min             =  -3.0336771832964E-03
(PID.TID 0000.0001) %MON dynstat_uvel_mean            =  -1.0925019643793E-07
(PID.TID 0000.0001) %MON dynstat_uvel_sd              =   9.8254887701483E-05
(PID.TID 0000.0001) %MON dynstat_uvel_del2            =   3.4586961552983E-07
(PID.TID 0000.0001) %MON dynstat_vvel_max             =   4.1954675135294E-03
(PID.TID 0000.0001) %MON dynstat_vvel_min             =  -3.1946493322064E-03
(PID.TID 0000.0001) %MON dynstat_vvel_mean            =   1.5297571674707E-05
(PID.TID 0000.0001) %MON dynstat_vvel_sd              =   1.3737316446967E-04
(PID.TID 0000.0001) %MON dynstat_vvel_del2            =   5.1578590412583E-07
(PID.TID 0000.0001) %MON dynstat_wvel_max             =   2.1226599751987E-04
(PID.TID 0000.0001) %MON dynstat_wvel_min             =  -2.2076901618680E-04
(PID.TID 0000.0001) %MON dynstat_wvel_mean            =   6.0731896953798E-09
(PID.TID 0000.0001) %MON dynstat_wvel_sd              =   3.8309842821478E-05
(PID.TID 0000.0001) %MON dynstat_wvel_del2            =   1.9456007166607E-07
(PID.TID 0000.0001) %MON dynstat_theta_max            =   1.2000000000000E+00
(PID.TID 0000.0001) %MON dynstat_theta_min            =  -1.0000000000000E+00
(PID.TID 0000.0001) %MON dynstat_theta_mean           =   5.6909370103995E-01
(PID.TID 0000.0001) %MON dynstat_theta_sd             =   8.6857863376182E-01
(PID.TID 0000.0001) %MON dynstat_theta_del2           =   1.3910977097586E-06
(PID.TID 0000.0001) %MON dynstat_salt_max             =   3.4700000000000E+01
(PID.TID 0000.0001) %MON dynstat_salt_min             =   3.4000000000000E+01
(PID.TID 0000.0001) %MON dynstat_salt_mean            =   3.4499251626117E+01
(PID.TID 0000.0001) %MON dynstat_salt_sd              =   2.7636450618051E-01
(PID.TID 0000.0001) %MON dynstat_salt_del2            =   4.5070356911910E-07
(PID.TID 0000.0001) %MON advcfl_uvel_max              =   3.0336771832964E-04
(PID.TID 0000.0001) %MON advcfl_vvel_max              =   4.1954675135294E-04
(PID.TID 0000.0001) %MON advcfl_wvel_max              =   1.1038450809340E-03
(PID.TID 0000.0001) %MON advcfl_W_hf_max              =   1.1038450809340E-03
(PID.TID 0000.0001) %MON pe_b_mean                    =  -8.3205341213961E-01
(PID.TID 0000.0001) %MON ke_max                       =   7.5068204323015E-06
(PID.TID 0000.0001) %MON ke_mean                      =   1.4282366284338E-08
(PID.TID 0000.0001) %MON ke_vol                       =   4.2725407809720E+12
(PID.TID 0000.0001) // =======================================================
(PID.TID 0000.0001) // End MONITOR dynamic field statistics
(PID.TID 0000.0001) // =======================================================
(PID.TID 0000.0001) // =======================================================
(PID.TID 0000.0001) // Begin OBCS MONITOR field statistics
(PID.TID 0000.0001) // =======================================================
(PID.TID 0000.0001) %MON obc_N_vVel_max               =   1.5101551298252E-05
(PID.TID 0000.0001) %MON obc_N_vVel_min               =   1.5101551298251E-05
(PID.TID 0000.0001) %MON obc_N_vVel_mean              =   1.5101551298252E-05
(PID.TID 0000.0001) %MON obc_N_vVel_sd                =  -1.0985992510470E-23
(PID.TID 0000.0001) %MON obc_N_vVel_Int               =   9.9670238568462E+02
(PID.TID 0000.0001) // =======================================================
(PID.TID 0000.0001) // End OBCS MONITOR field statistics
(PID.TID 0000.0001) // =======================================================
 cg2d: Sum(rhs),rhsMax =   4.52293568666406E+00  2.99873447755499E+02
(PID.TID 0000.0001)      cg2d_init_res =   7.68304881540340E-06
(PID.TID 0000.0001)      cg2d_iters(min,last) =      -1      74
(PID.TID 0000.0001)      cg2d_last_res =   9.65712677587910E-12
(PID.TID 0000.0001) // =======================================================
(PID.TID 0000.0001) // Begin MONITOR dynamic field statistics
(PID.TID 0000.0001) // =======================================================
(PID.TID 0000.0001) %MON time_tsnumber                =                   251
(PID.TID 0000.0001) %MON time_secondsf                =   2.5100000000000E+04
(PID.TID 0000.0001) %MON dynstat_eta_max              =   5.7940411829827E+00
(PID.TID 0000.0001) %MON dynstat_eta_min              =  -1.4200048630081E+01
(PID.TID 0000.0001) %MON dynstat_eta_mean             =  -2.5116820709932E+00
(PID.TID 0000.0001) %MON dynstat_eta_sd               =   4.9526157344026E+00
(PID.TID 0000.0001) %MON dynstat_eta_del2             =   2.0714025770409E-01
(PID.TID 0000.0001) %MON dynstat_uvel_max             =   2.5170691615806E-03
(PID.TID 0000.0001) %MON dynstat_uvel_min             =  -3.0346588473940E-03
(PID.TID 0000.0001) %MON dynstat_uvel_mean            =  -1.0917769605997E-07
(PID.TID 0000.0001) %MON dynstat_uvel_sd              =   9.8545260035706E-05
(PID.TID 0000.0001) %MON dynstat_uvel_del2            =   3.4521836233253E-07
(PID.TID 0000.0001) %MON dynstat_vvel_max             =   4.1982968694434E-03
(PID.TID 0000.0001) %MON dynstat_vvel_min             =  -3.1942763732848E-03
(PID.TID 0000.0001) %MON dynstat_vvel_mean            =   1.5179564371302E-05
(PID.TID 0000.0001) %MON dynstat_vvel_sd              =   1.3744776524980E-04
(PID.TID 0000.0001) %MON dynstat_vvel_del2            =   5.1446797583264E-07
(PID.TID 0000.0001) %MON dynstat_wvel_max             =   2.1186279190415E-04
(PID.TID 0000.0001) %MON dynstat_wvel_min             =  -2.1096943468822E-04
(PID.TID 0000.0001) %MON dynstat_wvel_mean            =   5.8973804913453E-09
(PID.TID 0000.0001) %MON dynstat_wvel_sd              =   3.8220873277245E-05
(PID.TID 0000.0001) %MON dynstat_wvel_del2            =   1.9391418972338E-07
(PID.TID 0000.0001) %MON dynstat_theta_max            =   1.2000000000000E+00
(PID.TID 0000.0001) %MON dynstat_theta_min            =  -1.0000000000000E+00
(PID.TID 0000.0001) %MON dynstat_theta_mean           =   5.6909344307566E-01
(PID.TID 0000.0001) %MON dynstat_theta_sd             =   8.6857849914519E-01
(PID.TID 0000.0001) %MON dynstat_theta_del2           =   1.3868747289513E-06
(PID.TID 0000.0001) %MON dynstat_salt_max             =   3.4700000000000E+01
(PID.TID 0000.0001) %MON dynstat_salt_min             =   3.4000000000000E+01
(PID.TID 0000.0001) %MON dynstat_salt_mean            =   3.4499251522833E+01
(PID.TID 0000.0001) %MON dynstat_salt_sd              =   2.7636445760365E-01
(PID.TID 0000.0001) %MON dynstat_salt_del2            =   4.4948969167982E-07
(PID.TID 0000.0001) %MON advcfl_uvel_max              =   3.0346588473940E-04
(PID.TID 0000.0001) %MON advcfl_vvel_max              =   4.1982968694434E-04
(PID.TID 0000.0001) %MON advcfl_wvel_max              =   1.0593139595207E-03
(PID.TID 0000.0001) %MON advcfl_W_hf_max              =   1.0593139595207E-03
(PID.TID 0000.0001) %MON pe_b_mean                    =  -8.3205754909633E-01
(PID.TID 0000.0001) %MON ke_max                       =   7.5354271052431E-06
(PID.TID 0000.0001) %MON ke_mean                      =   1.4318836269102E-08
(PID.TID 0000.0001) %MON ke_vol                       =   4.2725406944086E+12
(PID.TID 0000.0001) // =======================================================
(PID.TID 0000.0001) // End MONITOR dynamic field statistics
(PID.TID 0000.0001) // =======================================================
(PID.TID 0000.0001) // =======================================================
(PID.TID 0000.0001) // Begin OBCS MONITOR field statistics
(PID.TID 0000.0001) // =======================================================
(PID.TID 0000.0001) %MON obc_N_vVel_max               =   1.5002798716761E-05
(PID.TID 0000.0001) %MON obc_N_vVel_min               =   1.5002798716761E-05
(PID.TID 0000.0001) %MON obc_N_vVel_mean              =   1.5002798716761E-05
(PID.TID 0000.0001) %MON obc_N_vVel_sd                =   1.5504817494031E-12
(PID.TID 0000.0001) %MON obc_N_vVel_Int               =   9.9018471530625E+02
(PID.TID 0000.0001) // =======================================================
(PID.TID 0000.0001) // End OBCS MONITOR field statistics
(PID.TID 0000.0001) // =======================================================
 cg2d: Sum(rhs),rhsMax =   4.52296033040501E+00  2.99873527322466E+02
(PID.TID 0000.0001)      cg2d_init_res =   7.65742353885023E-06
(PID.TID 0000.0001)      cg2d_iters(min,last) =      -1      74
(PID.TID 0000.0001)      cg2d_last_res =   9.61347960146429E-12
(PID.TID 0000.0001) // =======================================================
(PID.TID 0000.0001) // Begin MONITOR dynamic field statistics
(PID.TID 0000.0001) // =======================================================
(PID.TID 0000.0001) %MON time_tsnumber                =                   252
(PID.TID 0000.0001) %MON time_secondsf                =   2.5200000000000E+04
(PID.TID 0000.0001) %MON dynstat_eta_max              =   5.7940293082700E+00
(PID.TID 0000.0001) %MON dynstat_eta_min              =  -1.4200082061619E+01
(PID.TID 0000.0001) %MON dynstat_eta_mean             =  -2.5116964226262E+00
(PID.TID 0000.0001) %MON dynstat_eta_sd               =   4.9526203501288E+00
(PID.TID 0000.0001) %MON dynstat_eta_del2             =   2.0714025966861E-01
(PID.TID 0000.0001) %MON dynstat_uvel_max             =   2.5113696768546E-03
(PID.TID 0000.0001) %MON dynstat_uvel_min             =  -3.0355717245509E-03
(PID.TID 0000.0001) %MON dynstat_uvel_mean            =  -1.0926384676303E-07
(PID.TID 0000.0001) %MON dynstat_uvel_sd              =   9.8837715431464E-05
(PID.TID 0000.0001) %MON dynstat_uvel_del2            =   3.4457012451247E-07
(PID.TID 0000.0001) %MON dynstat_vvel_max             =   4.2010001763391E-03
(PID.TID 0000.0001) %MON dynstat_vvel_min             =  -3.1937988283364E-03
(PID.TID 0000.0001) %MON dynstat_vvel_mean            =   1.5062745965665E-05
(PID.TID 0000.0001) %MON dynstat_vvel_sd              =   1.3751778782377E-04
(PID.TID 0000.0001) %MON dynstat_vvel_del2            =   5.1304430699560E-07
(PID.TID 0000.0001) %MON dynstat_wvel_max             =   2.1145330166613E-04
(PID.TID 0000.0001) %MON dynstat_wvel_min             =  -1.9753273836423E-04
(PID.TID 0000.0001) %MON dynstat_wvel_mean            =   5.7486949160906E-09
(PID.TID 0000.0001) %MON dynstat_wvel_sd              =   3.8122883848925E-05
(PID.TID 0000.0001) %MON dynstat_wvel_del2            =   1.9313701625748E-07
(PID.TID 0000.0001) %MON dynstat_theta_max            =   1.2000000000000E+00
(PID.TID 0000.0001) %MON dynstat_theta_min            =  -1.0000000000000E+00
(PID.TID 0000.0001) %MON dynstat_theta_mean           =   5.6909318503815E-01
(PID.TID 0000.0001) %MON dynstat_theta_sd             =   8.6857836450885E-01
(PID.TID 0000.0001) %MON dynstat_theta_del2           =   1.3827976065434E-06
(PID.TID 0000.0001) %MON dynstat_salt_max             =   3.4700000000000E+01
(PID.TID 0000.0001) %MON dynstat_salt_min             =   3.4000000000000E+01
(PID.TID 0000.0001) %MON dynstat_salt_mean            =   3.4499251419523E+01
(PID.TID 0000.0001) %MON dynstat_salt_sd              =   2.7636440901918E-01
(PID.TID 0000.0001) %MON dynstat_salt_del2            =   4.4832253627636E-07
(PID.TID 0000.0001) %MON advcfl_uvel_max              =   3.0355717245509E-04
(PID.TID 0000.0001) %MON advcfl_vvel_max              =   4.2010001763391E-04
(PID.TID 0000.0001) %MON advcfl_wvel_max              =   1.0572665083306E-03
(PID.TID 0000.0001) %MON advcfl_W_hf_max              =   1.0572665083306E-03
(PID.TID 0000.0001) %MON pe_b_mean                    =  -8.3206165674471E-01
(PID.TID 0000.0001) %MON ke_max                       =   7.5637673785672E-06
(PID.TID 0000.0001) %MON ke_mean                      =   1.4354998648048E-08
(PID.TID 0000.0001) %MON ke_vol                       =   4.2725406084983E+12
(PID.TID 0000.0001) // =======================================================
(PID.TID 0000.0001) // End MONITOR dynamic field statistics
(PID.TID 0000.0001) // =======================================================
(PID.TID 0000.0001) // =======================================================
(PID.TID 0000.0001) // Begin OBCS MONITOR field statistics
(PID.TID 0000.0001) // =======================================================
(PID.TID 0000.0001) %MON obc_N_vVel_max               =   1.4902757876952E-05
(PID.TID 0000.0001) %MON obc_N_vVel_min               =   1.4902757876951E-05
(PID.TID 0000.0001) %MON obc_N_vVel_mean              =   1.4902757876951E-05
(PID.TID 0000.0001) %MON obc_N_vVel_sd                =   3.1051286632072E-12
(PID.TID 0000.0001) %MON obc_N_vVel_Int               =   9.8358201987878E+02
(PID.TID 0000.0001) // =======================================================
(PID.TID 0000.0001) // End OBCS MONITOR field statistics
(PID.TID 0000.0001) // =======================================================
 cg2d: Sum(rhs),rhsMax =   4.51692161808024E+00  2.99873606726083E+02
(PID.TID 0000.0001)      cg2d_init_res =   4.09810788113799E-05
(PID.TID 0000.0001)      cg2d_iters(min,last) =      -1      83
(PID.TID 0000.0001)      cg2d_last_res =   9.07126008579651E-12
(PID.TID 0000.0001) // =======================================================
(PID.TID 0000.0001) // Begin MONITOR dynamic field statistics
(PID.TID 0000.0001) // =======================================================
(PID.TID 0000.0001) %MON time_tsnumber                =                   253
(PID.TID 0000.0001) %MON time_secondsf                =   2.5300000000000E+04
(PID.TID 0000.0001) %MON dynstat_eta_max              =   5.7993532163059E+00
(PID.TID 0000.0001) %MON dynstat_eta_min              =  -1.4195102568564E+01
(PID.TID 0000.0001) %MON dynstat_eta_mean             =  -2.5083436609495E+00
(PID.TID 0000.0001) %MON dynstat_eta_sd               =   4.9514756402008E+00
(PID.TID 0000.0001) %MON dynstat_eta_del2             =   2.0714026548592E-01
(PID.TID 0000.0001) %MON dynstat_uvel_max             =   2.5055810726400E-03
(PID.TID 0000.0001) %MON dynstat_uvel_min             =  -3.0364165444681E-03
(PID.TID 0000.0001) %MON dynstat_uvel_mean            =  -1.0956806574584E-07
(PID.TID 0000.0001) %MON dynstat_uvel_sd              =   9.9132956663703E-05
(PID.TID 0000.0001) %MON dynstat_uvel_del2            =   3.4392739871962E-07
(PID.TID 0000.0001) %MON dynstat_vvel_max             =   4.2035687346171E-03
(PID.TID 0000.0001) %MON dynstat_vvel_min             =  -3.1932239979193E-03
(PID.TID 0000.0001) %MON dynstat_vvel_mean            =   1.4951516527400E-05
(PID.TID 0000.0001) %MON dynstat_vvel_sd              =   1.3758397123982E-04
(PID.TID 0000.0001) %MON dynstat_vvel_del2            =   5.1154735384397E-07
(PID.TID 0000.0001) %MON dynstat_wvel_max             =   2.1103755797707E-04
(PID.TID 0000.0001) %MON dynstat_wvel_min             =  -1.9396958195179E-04
(PID.TID 0000.0001) %MON dynstat_wvel_mean            =   5.7553460944509E-09
(PID.TID 0000.0001) %MON dynstat_wvel_sd              =   3.8017980996630E-05
(PID.TID 0000.0001) %MON dynstat_wvel_del2            =   1.9226200366897E-07
(PID.TID 0000.0001) %MON dynstat_theta_max            =   1.2000000000000E+00
(PID.TID 0000.0001) %MON dynstat_theta_min            =  -1.0000000000000E+00
(PID.TID 0000.0001) %MON dynstat_theta_mean           =   5.6909292696257E-01
(PID.TID 0000.0001) %MON dynstat_theta_sd             =   8.6857822254310E-01
(PID.TID 0000.0001) %MON dynstat_theta_del2           =   1.4349325339681E-06
(PID.TID 0000.0001) %MON dynstat_salt_max             =   3.4700000000000E+01
(PID.TID 0000.0001) %MON dynstat_salt_min             =   3.4000000000000E+01
(PID.TID 0000.0001) %MON dynstat_salt_mean            =   3.4499251316198E+01
(PID.TID 0000.0001) %MON dynstat_salt_sd              =   2.7636435808821E-01
(PID.TID 0000.0001) %MON dynstat_salt_del2            =   4.6480296379124E-07
(PID.TID 0000.0001) %MON advcfl_uvel_max              =   3.0364165444681E-04
(PID.TID 0000.0001) %MON advcfl_vvel_max              =   4.2035687346171E-04
(PID.TID 0000.0001) %MON advcfl_wvel_max              =   1.0551877898854E-03
(PID.TID 0000.0001) %MON advcfl_W_hf_max              =   1.0551877898854E-03
(PID.TID 0000.0001) %MON pe_b_mean                    =  -8.3116986444957E-01
(PID.TID 0000.0001) %MON ke_max                       =   7.5918120810177E-06
(PID.TID 0000.0001) %MON ke_mean                      =   1.4391089274087E-08
(PID.TID 0000.0001) %MON ke_vol                       =   4.2725405232496E+12
(PID.TID 0000.0001) // =======================================================
(PID.TID 0000.0001) // End MONITOR dynamic field statistics
(PID.TID 0000.0001) // =======================================================
(PID.TID 0000.0001) // =======================================================
(PID.TID 0000.0001) // Begin OBCS MONITOR field statistics
(PID.TID 0000.0001) // =======================================================
(PID.TID 0000.0001) %MON obc_N_vVel_max               =   1.4804017059438E-05
(PID.TID 0000.0001) %MON obc_N_vVel_min               =   1.4804017059438E-05
(PID.TID 0000.0001) %MON obc_N_vVel_mean              =   1.4804017059438E-05
(PID.TID 0000.0001) %MON obc_N_vVel_sd                =  -1.3751877683694E-23
(PID.TID 0000.0001) %MON obc_N_vVel_Int               =   9.7706512592293E+02
(PID.TID 0000.0001) // =======================================================
(PID.TID 0000.0001) // End OBCS MONITOR field statistics
(PID.TID 0000.0001) // =======================================================
 cg2d: Sum(rhs),rhsMax =   4.51694590734368E+00  2.99873685976227E+02
(PID.TID 0000.0001)      cg2d_init_res =   7.65441181985478E-06
(PID.TID 0000.0001)      cg2d_iters(min,last) =      -1      75
(PID.TID 0000.0001)      cg2d_last_res =   8.63509656001152E-12
(PID.TID 0000.0001) // =======================================================
(PID.TID 0000.0001) // Begin MONITOR dynamic field statistics
(PID.TID 0000.0001) // =======================================================
(PID.TID 0000.0001) %MON time_tsnumber                =                   254
(PID.TID 0000.0001) %MON time_secondsf                =   2.5400000000000E+04
(PID.TID 0000.0001) %MON dynstat_eta_max              =   5.7993255351800E+00
(PID.TID 0000.0001) %MON dynstat_eta_min              =  -1.4195119106823E+01
(PID.TID 0000.0001) %MON dynstat_eta_mean             =  -2.5083578122044E+00
(PID.TID 0000.0001) %MON dynstat_eta_sd               =   4.9514801920230E+00
(PID.TID 0000.0001) %MON dynstat_eta_del2             =   2.0714026763322E-01
(PID.TID 0000.0001) %MON dynstat_uvel_max             =   2.4997047406341E-03
(PID.TID 0000.0001) %MON dynstat_uvel_min             =  -3.0371941895382E-03
(PID.TID 0000.0001) %MON dynstat_uvel_mean            =  -1.1041648109646E-07
(PID.TID 0000.0001) %MON dynstat_uvel_sd              =   9.9429984170300E-05
(PID.TID 0000.0001) %MON dynstat_uvel_del2            =   3.4329173096275E-07
(PID.TID 0000.0001) %MON dynstat_vvel_max             =   4.2060145060496E-03
(PID.TID 0000.0001) %MON dynstat_vvel_min             =  -3.1925444096839E-03
(PID.TID 0000.0001) %MON dynstat_vvel_mean            =   1.4848812963394E-05
(PID.TID 0000.0001) %MON dynstat_vvel_sd              =   1.3764935853803E-04
(PID.TID 0000.0001) %MON dynstat_vvel_del2            =   5.1000802123677E-07
(PID.TID 0000.0001) %MON dynstat_wvel_max             =   2.1061561827235E-04
(PID.TID 0000.0001) %MON dynstat_wvel_min             =  -1.9358656256475E-04
(PID.TID 0000.0001) %MON dynstat_wvel_mean            =   5.5544496999292E-09
(PID.TID 0000.0001) %MON dynstat_wvel_sd              =   3.7909020384241E-05
(PID.TID 0000.0001) %MON dynstat_wvel_del2            =   1.9133281560907E-07
(PID.TID 0000.0001) %MON dynstat_theta_max            =   1.2000000000000E+00
(PID.TID 0000.0001) %MON dynstat_theta_min            =  -1.0000000000000E+00
(PID.TID 0000.0001) %MON dynstat_theta_mean           =   5.6909266875525E-01
(PID.TID 0000.0001) %MON dynstat_theta_sd             =   8.6857808805672E-01
(PID.TID 0000.0001) %MON dynstat_theta_del2           =   1.4305937611954E-06
(PID.TID 0000.0001) %MON dynstat_salt_max             =   3.4700000000000E+01
(PID.TID 0000.0001) %MON dynstat_salt_min             =   3.4000000000000E+01
(PID.TID 0000.0001) %MON dynstat_salt_mean            =   3.4499251212830E+01
(PID.TID 0000.0001) %MON dynstat_salt_sd              =   2.7636430954875E-01
(PID.TID 0000.0001) %MON dynstat_salt_del2            =   4.6354974792448E-07
(PID.TID 0000.0001) %MON advcfl_uvel_max              =   3.0371941895382E-04
(PID.TID 0000.0001) %MON advcfl_vvel_max              =   4.2060145060496E-04
(PID.TID 0000.0001) %MON advcfl_wvel_max              =   1.0530780913617E-03
(PID.TID 0000.0001) %MON advcfl_W_hf_max              =   1.0530780913617E-03
(PID.TID 0000.0001) %MON pe_b_mean                    =  -8.3117391979262E-01
(PID.TID 0000.0001) %MON ke_max                       =   7.6195962795915E-06
(PID.TID 0000.0001) %MON ke_mean                      =   1.4427471144990E-08
(PID.TID 0000.0001) %MON ke_vol                       =   4.2725404386540E+12
(PID.TID 0000.0001) // =======================================================
(PID.TID 0000.0001) // End MONITOR dynamic field statistics
(PID.TID 0000.0001) // =======================================================
(PID.TID 0000.0001) // =======================================================
(PID.TID 0000.0001) // Begin OBCS MONITOR field statistics
(PID.TID 0000.0001) // =======================================================
(PID.TID 0000.0001) %MON obc_N_vVel_max               =   1.4722828237904E-05
(PID.TID 0000.0001) %MON obc_N_vVel_min               =   1.4722828237904E-05
(PID.TID 0000.0001) %MON obc_N_vVel_mean              =   1.4722828237904E-05
(PID.TID 0000.0001) %MON obc_N_vVel_sd                =  -6.3331015648591E-24
(PID.TID 0000.0001) %MON obc_N_vVel_Int               =   9.7170666370167E+02
(PID.TID 0000.0001) // =======================================================
(PID.TID 0000.0001) // End OBCS MONITOR field statistics
(PID.TID 0000.0001) // =======================================================
 cg2d: Sum(rhs),rhsMax =   4.51697002758810E+00  2.99873765076346E+02
(PID.TID 0000.0001)      cg2d_init_res =   7.57676258126586E-06
(PID.TID 0000.0001)      cg2d_iters(min,last) =      -1      74
(PID.TID 0000.0001)      cg2d_last_res =   9.68528664481280E-12
(PID.TID 0000.0001) // =======================================================
(PID.TID 0000.0001) // Begin MONITOR dynamic field statistics
(PID.TID 0000.0001) // =======================================================
(PID.TID 0000.0001) %MON time_tsnumber                =                   255
(PID.TID 0000.0001) %MON time_secondsf                =   2.5500000000000E+04
(PID.TID 0000.0001) %MON dynstat_eta_max              =   5.7992954293686E+00
(PID.TID 0000.0001) %MON dynstat_eta_min              =  -1.4195135442990E+01
(PID.TID 0000.0001) %MON dynstat_eta_mean             =  -2.5083718683516E+00
(PID.TID 0000.0001) %MON dynstat_eta_sd               =   4.9514847092895E+00
(PID.TID 0000.0001) %MON dynstat_eta_del2             =   2.0714026960875E-01
(PID.TID 0000.0001) %MON dynstat_uvel_max             =   2.4937404544421E-03
(PID.TID 0000.0001) %MON dynstat_uvel_min             =  -3.0379051739580E-03
(PID.TID 0000.0001) %MON dynstat_uvel_mean            =  -1.1151730747412E-07
(PID.TID 0000.0001) %MON dynstat_uvel_sd              =   9.9729104216719E-05
(PID.TID 0000.0001) %MON dynstat_uvel_del2            =   3.4266305906794E-07
(PID.TID 0000.0001) %MON dynstat_vvel_max             =   4.2083598428899E-03
(PID.TID 0000.0001) %MON dynstat_vvel_min             =  -3.1917413954234E-03
(PID.TID 0000.0001) %MON dynstat_vvel_mean            =   1.4754166958573E-05
(PID.TID 0000.0001) %MON dynstat_vvel_sd              =   1.3771547588674E-04
(PID.TID 0000.0001) %MON dynstat_vvel_del2            =   5.0847227469740E-07
(PID.TID 0000.0001) %MON dynstat_wvel_max             =   2.1018752389914E-04
(PID.TID 0000.0001) %MON dynstat_wvel_min             =  -1.9146484370478E-04
(PID.TID 0000.0001) %MON dynstat_wvel_mean            =   5.4114702748974E-09
(PID.TID 0000.0001) %MON dynstat_wvel_sd              =   3.7799478301688E-05
(PID.TID 0000.0001) %MON dynstat_wvel_del2            =   1.9040177810602E-07
(PID.TID 0000.0001) %MON dynstat_theta_max            =   1.2000000000000E+00
(PID.TID 0000.0001) %MON dynstat_theta_min            =  -1.0000000000000E+00
(PID.TID 0000.0001) %MON dynstat_theta_mean           =   5.6909241049466E-01
(PID.TID 0000.0001) %MON dynstat_theta_sd             =   8.6857795368452E-01
(PID.TID 0000.0001) %MON dynstat_theta_del2           =   1.4262700455439E-06
(PID.TID 0000.0001) %MON dynstat_salt_max             =   3.4700000000000E+01
(PID.TID 0000.0001) %MON dynstat_salt_min             =   3.4000000000000E+01
(PID.TID 0000.0001) %MON dynstat_salt_mean            =   3.4499251109442E+01
(PID.TID 0000.0001) %MON dynstat_salt_sd              =   2.7636426104418E-01
(PID.TID 0000.0001) %MON dynstat_salt_del2            =   4.6230217594551E-07
(PID.TID 0000.0001) %MON advcfl_uvel_max              =   3.0379051739580E-04
(PID.TID 0000.0001) %MON advcfl_vvel_max              =   4.2083598428899E-04
(PID.TID 0000.0001) %MON advcfl_wvel_max              =   1.0509376194957E-03
(PID.TID 0000.0001) %MON advcfl_W_hf_max              =   1.0509376194957E-03
(PID.TID 0000.0001) %MON pe_b_mean                    =  -8.3117794966016E-01
(PID.TID 0000.0001) %MON ke_max                       =   7.6471861204307E-06
(PID.TID 0000.0001) %MON ke_mean                      =   1.4464378688337E-08
(PID.TID 0000.0001) %MON ke_vol                       =   4.2725403545955E+12
(PID.TID 0000.0001) // =======================================================
(PID.TID 0000.0001) // End MONITOR dynamic field statistics
(PID.TID 0000.0001) // =======================================================
(PID.TID 0000.0001) // =======================================================
(PID.TID 0000.0001) // Begin OBCS MONITOR field statistics
(PID.TID 0000.0001) // =======================================================
(PID.TID 0000.0001) %MON obc_N_vVel_max               =   1.4637435055556E-05
(PID.TID 0000.0001) %MON obc_N_vVel_min               =   1.4637435055556E-05
(PID.TID 0000.0001) %MON obc_N_vVel_mean              =   1.4637435055556E-05
(PID.TID 0000.0001) %MON obc_N_vVel_sd                =   2.9118037843695E-12
(PID.TID 0000.0001) %MON obc_N_vVel_Int               =   9.6607071366671E+02
(PID.TID 0000.0001) // =======================================================
(PID.TID 0000.0001) // End OBCS MONITOR field statistics
(PID.TID 0000.0001) // =======================================================
 cg2d: Sum(rhs),rhsMax =   4.51699397575977E+00  2.99873844009450E+02
(PID.TID 0000.0001)      cg2d_init_res =   7.55161880975909E-06
(PID.TID 0000.0001)      cg2d_iters(min,last) =      -1      74
(PID.TID 0000.0001)      cg2d_last_res =   9.81492616343812E-12
(PID.TID 0000.0001) // =======================================================
(PID.TID 0000.0001) // Begin MONITOR dynamic field statistics
(PID.TID 0000.0001) // =======================================================
(PID.TID 0000.0001) %MON time_tsnumber                =                   256
(PID.TID 0000.0001) %MON time_secondsf                =   2.5600000000000E+04
(PID.TID 0000.0001) %MON dynstat_eta_max              =   5.7992622827175E+00
(PID.TID 0000.0001) %MON dynstat_eta_min              =  -1.4195151613133E+01
(PID.TID 0000.0001) %MON dynstat_eta_mean             =  -2.5083858275530E+00
(PID.TID 0000.0001) %MON dynstat_eta_sd               =   4.9514892023773E+00
(PID.TID 0000.0001) %MON dynstat_eta_del2             =   2.0714027155249E-01
(PID.TID 0000.0001) %MON dynstat_uvel_max             =   2.4876873227395E-03
(PID.TID 0000.0001) %MON dynstat_uvel_min             =  -3.0385493918725E-03
(PID.TID 0000.0001) %MON dynstat_uvel_mean            =  -1.1238635992077E-07
(PID.TID 0000.0001) %MON dynstat_uvel_sd              =   1.0003052475277E-04
(PID.TID 0000.0001) %MON dynstat_uvel_del2            =   3.4204119466827E-07
(PID.TID 0000.0001) %MON dynstat_vvel_max             =   4.2106074547839E-03
(PID.TID 0000.0001) %MON dynstat_vvel_min             =  -3.1908103489515E-03
(PID.TID 0000.0001) %MON dynstat_vvel_mean            =   1.4667968467150E-05
(PID.TID 0000.0001) %MON dynstat_vvel_sd              =   1.3778424417867E-04
(PID.TID 0000.0001) %MON dynstat_vvel_del2            =   5.0698264991700E-07
(PID.TID 0000.0001) %MON dynstat_wvel_max             =   2.0975331784348E-04
(PID.TID 0000.0001) %MON dynstat_wvel_min             =  -1.9217574468664E-04
(PID.TID 0000.0001) %MON dynstat_wvel_mean            =   5.3905749853092E-09
(PID.TID 0000.0001) %MON dynstat_wvel_sd              =   3.7692910923276E-05
(PID.TID 0000.0001) %MON dynstat_wvel_del2            =   1.8952086089218E-07
(PID.TID 0000.0001) %MON dynstat_theta_max            =   1.2000000000000E+00
(PID.TID 0000.0001) %MON dynstat_theta_min            =  -1.0000000000000E+00
(PID.TID 0000.0001) %MON dynstat_theta_mean           =   5.6909215219459E-01
(PID.TID 0000.0001) %MON dynstat_theta_sd             =   8.6857781940342E-01
(PID.TID 0000.0001) %MON dynstat_theta_del2           =   1.4219206281079E-06
(PID.TID 0000.0001) %MON dynstat_salt_max             =   3.4700000000000E+01
(PID.TID 0000.0001) %MON dynstat_salt_min             =   3.4000000000000E+01
(PID.TID 0000.0001) %MON dynstat_salt_mean            =   3.4499251006040E+01
(PID.TID 0000.0001) %MON dynstat_salt_sd              =   2.7636421256738E-01
(PID.TID 0000.0001) %MON dynstat_salt_del2            =   4.6104745287455E-07
(PID.TID 0000.0001) %MON advcfl_uvel_max              =   3.0385493918725E-04
(PID.TID 0000.0001) %MON advcfl_vvel_max              =   4.2106074547839E-04
(PID.TID 0000.0001) %MON advcfl_wvel_max              =   1.0487665892174E-03
(PID.TID 0000.0001) %MON advcfl_W_hf_max              =   1.0487665892174E-03
(PID.TID 0000.0001) %MON pe_b_mean                    =  -8.3118195718819E-01
(PID.TID 0000.0001) %MON ke_max                       =   7.6745870458054E-06
(PID.TID 0000.0001) %MON ke_mean                      =   1.4502102006665E-08
(PID.TID 0000.0001) %MON ke_vol                       =   4.2725402711020E+12
(PID.TID 0000.0001) // =======================================================
(PID.TID 0000.0001) // End MONITOR dynamic field statistics
(PID.TID 0000.0001) // =======================================================
(PID.TID 0000.0001) // =======================================================
(PID.TID 0000.0001) // Begin OBCS MONITOR field statistics
(PID.TID 0000.0001) // =======================================================
(PID.TID 0000.0001) %MON obc_N_vVel_max               =   1.4550389361168E-05
(PID.TID 0000.0001) %MON obc_N_vVel_min               =   1.4550389361168E-05
(PID.TID 0000.0001) %MON obc_N_vVel_mean              =   1.4550389361168E-05
(PID.TID 0000.0001) %MON obc_N_vVel_sd                =   3.5224578334304E-12
(PID.TID 0000.0001) %MON obc_N_vVel_Int               =   9.6032569783706E+02
(PID.TID 0000.0001) // =======================================================
(PID.TID 0000.0001) // End OBCS MONITOR field statistics
(PID.TID 0000.0001) // =======================================================
 cg2d: Sum(rhs),rhsMax =   4.51701777288034E+00  2.99873922768933E+02
(PID.TID 0000.0001)      cg2d_init_res =   7.53058983252719E-06
(PID.TID 0000.0001)      cg2d_iters(min,last) =      -1      74
(PID.TID 0000.0001)      cg2d_last_res =   9.90357815115082E-12
(PID.TID 0000.0001) // =======================================================
(PID.TID 0000.0001) // Begin MONITOR dynamic field statistics
(PID.TID 0000.0001) // =======================================================
(PID.TID 0000.0001) %MON time_tsnumber                =                   257
(PID.TID 0000.0001) %MON time_secondsf                =   2.5700000000000E+04
(PID.TID 0000.0001) %MON dynstat_eta_max              =   5.7992289115251E+00
(PID.TID 0000.0001) %MON dynstat_eta_min              =  -1.4195167663706E+01
(PID.TID 0000.0001) %MON dynstat_eta_mean             =  -2.5083997014271E+00
(PID.TID 0000.0001) %MON dynstat_eta_sd               =   4.9514936805507E+00
(PID.TID 0000.0001) %MON dynstat_eta_del2             =   2.0714027349631E-01
(PID.TID 0000.0001) %MON dynstat_uvel_max             =   2.4815459814214E-03
(PID.TID 0000.0001) %MON dynstat_uvel_min             =  -3.0391266223280E-03
(PID.TID 0000.0001) %MON dynstat_uvel_mean            =  -1.1283311216118E-07
(PID.TID 0000.0001) %MON dynstat_uvel_sd              =   1.0033429561964E-04
(PID.TID 0000.0001) %MON dynstat_uvel_del2            =   3.4142600553110E-07
(PID.TID 0000.0001) %MON dynstat_vvel_max             =   4.2127457531347E-03
(PID.TID 0000.0001) %MON dynstat_vvel_min             =  -3.1897610967055E-03
(PID.TID 0000.0001) %MON dynstat_vvel_mean            =   1.4592658260210E-05
(PID.TID 0000.0001) %MON dynstat_vvel_sd              =   1.3785742619919E-04
(PID.TID 0000.0001) %MON dynstat_vvel_del2            =   5.0557601689611E-07
(PID.TID 0000.0001) %MON dynstat_wvel_max             =   2.0931297723093E-04
(PID.TID 0000.0001) %MON dynstat_wvel_min             =  -2.0020945349153E-04
(PID.TID 0000.0001) %MON dynstat_wvel_mean            =   5.4201183830647E-09
(PID.TID 0000.0001) %MON dynstat_wvel_sd              =   3.7592443105079E-05
(PID.TID 0000.0001) %MON dynstat_wvel_del2            =   1.8873495323294E-07
(PID.TID 0000.0001) %MON dynstat_theta_max            =   1.2000000000000E+00
(PID.TID 0000.0001) %MON dynstat_theta_min            =  -1.0000000000000E+00
(PID.TID 0000.0001) %MON dynstat_theta_mean           =   5.6909189383931E-01
(PID.TID 0000.0001) %MON dynstat_theta_sd             =   8.6857768519219E-01
(PID.TID 0000.0001) %MON dynstat_theta_del2           =   1.4175131498920E-06
(PID.TID 0000.0001) %MON dynstat_salt_max             =   3.4700000000000E+01
(PID.TID 0000.0001) %MON dynstat_salt_min             =   3.4000000000000E+01
(PID.TID 0000.0001) %MON dynstat_salt_mean            =   3.4499250902617E+01
(PID.TID 0000.0001) %MON dynstat_salt_sd              =   2.7636416411144E-01
(PID.TID 0000.0001) %MON dynstat_salt_del2            =   4.5977535059902E-07
(PID.TID 0000.0001) %MON advcfl_uvel_max              =   3.0391266223280E-04
(PID.TID 0000.0001) %MON advcfl_vvel_max              =   4.2127457531347E-04
(PID.TID 0000.0001) %MON advcfl_wvel_max              =   1.0465648861547E-03
(PID.TID 0000.0001) %MON advcfl_W_hf_max              =   1.0465648861547E-03
(PID.TID 0000.0001) %MON pe_b_mean                    =  -8.3118594643368E-01
(PID.TID 0000.0001) %MON ke_max                       =   7.7017609551652E-06
(PID.TID 0000.0001) %MON ke_mean                      =   1.4540923626591E-08
(PID.TID 0000.0001) %MON ke_vol                       =   4.2725401881843E+12
(PID.TID 0000.0001) // =======================================================
(PID.TID 0000.0001) // End MONITOR dynamic field statistics
(PID.TID 0000.0001) // =======================================================
(PID.TID 0000.0001) // =======================================================
(PID.TID 0000.0001) // Begin OBCS MONITOR field statistics
(PID.TID 0000.0001) // =======================================================
(PID.TID 0000.0001) %MON obc_N_vVel_max               =   1.4473799767870E-05
(PID.TID 0000.0001) %MON obc_N_vVel_min               =   1.4473799767869E-05
(PID.TID 0000.0001) %MON obc_N_vVel_mean              =   1.4473799767870E-05
(PID.TID 0000.0001) %MON obc_N_vVel_sd                =  -2.0214226219265E-23
(PID.TID 0000.0001) %MON obc_N_vVel_Int               =   9.5527078467939E+02
(PID.TID 0000.0001) // =======================================================
(PID.TID 0000.0001) // End OBCS MONITOR field statistics
(PID.TID 0000.0001) // =======================================================
 cg2d: Sum(rhs),rhsMax =   4.51704144659910E+00  2.99874001372946E+02
(PID.TID 0000.0001)      cg2d_init_res =   7.51417236816277E-06
(PID.TID 0000.0001)      cg2d_iters(min,last) =      -1      74
(PID.TID 0000.0001)      cg2d_last_res =   9.96611750329748E-12
(PID.TID 0000.0001) // =======================================================
(PID.TID 0000.0001) // Begin MONITOR dynamic field statistics
(PID.TID 0000.0001) // =======================================================
(PID.TID 0000.0001) %MON time_tsnumber                =                   258
(PID.TID 0000.0001) %MON time_secondsf                =   2.5800000000000E+04
(PID.TID 0000.0001) %MON dynstat_eta_max              =   5.7991954992605E+00
(PID.TID 0000.0001) %MON dynstat_eta_min              =  -1.4195183637142E+01
(PID.TID 0000.0001) %MON dynstat_eta_mean             =  -2.5084135054798E+00
(PID.TID 0000.0001) %MON dynstat_eta_sd               =   4.9514981478329E+00
(PID.TID 0000.0001) %MON dynstat_eta_del2             =   2.0714027544049E-01
(PID.TID 0000.0001) %MON dynstat_uvel_max             =   2.4753189338895E-03
(PID.TID 0000.0001) %MON dynstat_uvel_min             =  -3.0396372893158E-03
(PID.TID 0000.0001) %MON dynstat_uvel_mean            =  -1.1302092984701E-07
(PID.TID 0000.0001) %MON dynstat_uvel_sd              =   1.0064040185210E-04
(PID.TID 0000.0001) %MON dynstat_uvel_del2            =   3.4081733958848E-07
(PID.TID 0000.0001) %MON dynstat_vvel_max             =   4.2147678783735E-03
(PID.TID 0000.0001) %MON dynstat_vvel_min             =  -3.1886018772038E-03
(PID.TID 0000.0001) %MON dynstat_vvel_mean            =   1.4530753727551E-05
(PID.TID 0000.0001) %MON dynstat_vvel_sd              =   1.3793635527012E-04
(PID.TID 0000.0001) %MON dynstat_vvel_del2            =   5.0427876174868E-07
(PID.TID 0000.0001) %MON dynstat_wvel_max             =   2.0886648840245E-04
(PID.TID 0000.0001) %MON dynstat_wvel_min             =  -2.1017682839407E-04
(PID.TID 0000.0001) %MON dynstat_wvel_mean            =   5.4640055871551E-09
(PID.TID 0000.0001) %MON dynstat_wvel_sd              =   3.7500391848400E-05
(PID.TID 0000.0001) %MON dynstat_wvel_del2            =   1.8807614322665E-07
(PID.TID 0000.0001) %MON dynstat_theta_max            =   1.2000000000000E+00
(PID.TID 0000.0001) %MON dynstat_theta_min            =  -1.0000000000000E+00
(PID.TID 0000.0001) %MON dynstat_theta_mean           =   5.6909163542652E-01
(PID.TID 0000.0001) %MON dynstat_theta_sd             =   8.6857755097708E-01
(PID.TID 0000.0001) %MON dynstat_theta_del2           =   1.4130266075023E-06
(PID.TID 0000.0001) %MON dynstat_salt_max             =   3.4700000000000E+01
(PID.TID 0000.0001) %MON dynstat_salt_min             =   3.4000000000000E+01
(PID.TID 0000.0001) %MON dynstat_salt_mean            =   3.4499250799174E+01
(PID.TID 0000.0001) %MON dynstat_salt_sd              =   2.7636411565300E-01
(PID.TID 0000.0001) %MON dynstat_salt_del2            =   4.5847920859804E-07
(PID.TID 0000.0001) %MON advcfl_uvel_max              =   3.0396372893158E-04
(PID.TID 0000.0001) %MON advcfl_vvel_max              =   4.2147678783735E-04
(PID.TID 0000.0001) %MON advcfl_wvel_max              =   1.0508841419704E-03
(PID.TID 0000.0001) %MON advcfl_W_hf_max              =   1.0508841419704E-03
(PID.TID 0000.0001) %MON pe_b_mean                    =  -8.3118992129009E-01
(PID.TID 0000.0001) %MON ke_max                       =   7.7286844202043E-06
(PID.TID 0000.0001) %MON ke_mean                      =   1.4581062796286E-08
(PID.TID 0000.0001) %MON ke_vol                       =   4.2725401057735E+12
(PID.TID 0000.0001) // =======================================================
(PID.TID 0000.0001) // End MONITOR dynamic field statistics
(PID.TID 0000.0001) // =======================================================
(PID.TID 0000.0001) // =======================================================
(PID.TID 0000.0001) // Begin OBCS MONITOR field statistics
(PID.TID 0000.0001) // =======================================================
(PID.TID 0000.0001) %MON obc_N_vVel_max               =   1.4411166437924E-05
(PID.TID 0000.0001) %MON obc_N_vVel_min               =   1.4411166437924E-05
(PID.TID 0000.0001) %MON obc_N_vVel_mean              =   1.4411166437924E-05
(PID.TID 0000.0001) %MON obc_N_vVel_sd                =   3.7499427213494E-12
(PID.TID 0000.0001) %MON obc_N_vVel_Int               =   9.5113698490298E+02
(PID.TID 0000.0001) // =======================================================
(PID.TID 0000.0001) // End OBCS MONITOR field statistics
(PID.TID 0000.0001) // =======================================================
 cg2d: Sum(rhs),rhsMax =   4.51706502163872E+00  2.99874079849732E+02
(PID.TID 0000.0001)      cg2d_init_res =   7.50282480227026E-06
(PID.TID 0000.0001)      cg2d_iters(min,last) =      -1      75
(PID.TID 0000.0001)      cg2d_last_res =   8.51698508615343E-12
(PID.TID 0000.0001) // =======================================================
(PID.TID 0000.0001) // Begin MONITOR dynamic field statistics
(PID.TID 0000.0001) // =======================================================
(PID.TID 0000.0001) %MON time_tsnumber                =                   259
(PID.TID 0000.0001) %MON time_secondsf                =   2.5900000000000E+04
(PID.TID 0000.0001) %MON dynstat_eta_max              =   5.7991620712666E+00
(PID.TID 0000.0001) %MON dynstat_eta_min              =  -1.4195199561255E+01
(PID.TID 0000.0001) %MON dynstat_eta_mean             =  -2.5084272536765E+00
(PID.TID 0000.0001) %MON dynstat_eta_sd               =   4.9515026076314E+00
(PID.TID 0000.0001) %MON dynstat_eta_del2             =   2.0714027738531E-01
(PID.TID 0000.0001) %MON dynstat_uvel_max             =   2.4690089127919E-03
(PID.TID 0000.0001) %MON dynstat_uvel_min             =  -3.0400825951080E-03
(PID.TID 0000.0001) %MON dynstat_uvel_mean            =  -1.1320819847291E-07
(PID.TID 0000.0001) %MON dynstat_uvel_sd              =   1.0094881154690E-04
(PID.TID 0000.0001) %MON dynstat_uvel_del2            =   3.4021503036502E-07
(PID.TID 0000.0001) %MON dynstat_vvel_max             =   4.2166757955773E-03
(PID.TID 0000.0001) %MON dynstat_vvel_min             =  -3.1873332161858E-03
(PID.TID 0000.0001) %MON dynstat_vvel_mean            =   1.4483726537811E-05
(PID.TID 0000.0001) %MON dynstat_vvel_sd              =   1.3802175562569E-04
(PID.TID 0000.0001) %MON dynstat_vvel_del2            =   5.0310355664096E-07
(PID.TID 0000.0001) %MON dynstat_wvel_max             =   2.0841389176033E-04
(PID.TID 0000.0001) %MON dynstat_wvel_min             =  -2.1662026623352E-04
(PID.TID 0000.0001) %MON dynstat_wvel_mean            =   5.5267379842115E-09
(PID.TID 0000.0001) %MON dynstat_wvel_sd              =   3.7417985425412E-05
(PID.TID 0000.0001) %MON dynstat_wvel_del2            =   1.8755967182870E-07
(PID.TID 0000.0001) %MON dynstat_theta_max            =   1.2000000000000E+00
(PID.TID 0000.0001) %MON dynstat_theta_min            =  -1.0000000000000E+00
(PID.TID 0000.0001) %MON dynstat_theta_mean           =   5.6909137696385E-01
(PID.TID 0000.0001) %MON dynstat_theta_sd             =   8.6857741670419E-01
(PID.TID 0000.0001) %MON dynstat_theta_del2           =   1.4084526783460E-06
(PID.TID 0000.0001) %MON dynstat_salt_max             =   3.4700000000000E+01
(PID.TID 0000.0001) %MON dynstat_salt_min             =   3.4000000000000E+01
(PID.TID 0000.0001) %MON dynstat_salt_mean            =   3.4499250695713E+01
(PID.TID 0000.0001) %MON dynstat_salt_sd              =   2.7636406717498E-01
(PID.TID 0000.0001) %MON dynstat_salt_del2            =   4.5715649245216E-07
(PID.TID 0000.0001) %MON advcfl_uvel_max              =   3.0400825951080E-04
(PID.TID 0000.0001) %MON advcfl_vvel_max              =   4.2166757955773E-04
(PID.TID 0000.0001) %MON advcfl_wvel_max              =   1.0831013311676E-03
(PID.TID 0000.0001) %MON advcfl_W_hf_max              =   1.0831013311676E-03
(PID.TID 0000.0001) %MON pe_b_mean                    =  -8.3119388544610E-01
(PID.TID 0000.0001) %MON ke_max                       =   7.7553609419389E-06
(PID.TID 0000.0001) %MON ke_mean                      =   1.4622638797849E-08
(PID.TID 0000.0001) %MON ke_vol                       =   4.2725400237774E+12
(PID.TID 0000.0001) // =======================================================
(PID.TID 0000.0001) // End MONITOR dynamic field statistics
(PID.TID 0000.0001) // =======================================================
(PID.TID 0000.0001) // =======================================================
(PID.TID 0000.0001) // Begin OBCS MONITOR field statistics
(PID.TID 0000.0001) // =======================================================
(PID.TID 0000.0001) %MON obc_N_vVel_max               =   1.4361104895784E-05
(PID.TID 0000.0001) %MON obc_N_vVel_min               =   1.4361104895783E-05
(PID.TID 0000.0001) %MON obc_N_vVel_mean              =   1.4361104895784E-05
(PID.TID 0000.0001) %MON obc_N_vVel_sd                =  -5.5317703464484E-24
(PID.TID 0000.0001) %MON obc_N_vVel_Int               =   9.4783292312172E+02
(PID.TID 0000.0001) // =======================================================
(PID.TID 0000.0001) // End OBCS MONITOR field statistics
(PID.TID 0000.0001) // =======================================================
 cg2d: Sum(rhs),rhsMax =   4.51708852089802E+00  2.99874158218528E+02
(PID.TID 0000.0001)      cg2d_init_res =   7.49686463035121E-06
(PID.TID 0000.0001)      cg2d_iters(min,last) =      -1      75
(PID.TID 0000.0001)      cg2d_last_res =   8.52390053727901E-12
(PID.TID 0000.0001) // =======================================================
(PID.TID 0000.0001) // Begin MONITOR dynamic field statistics
(PID.TID 0000.0001) // =======================================================
(PID.TID 0000.0001) %MON time_tsnumber                =                   260
(PID.TID 0000.0001) %MON time_secondsf                =   2.6000000000000E+04
(PID.TID 0000.0001) %MON dynstat_eta_max              =   5.7991286375172E+00
(PID.TID 0000.0001) %MON dynstat_eta_min              =  -1.4195215452433E+01
(PID.TID 0000.0001) %MON dynstat_eta_mean             =  -2.5084409588942E+00
(PID.TID 0000.0001) %MON dynstat_eta_sd               =   4.9515070643051E+00
(PID.TID 0000.0001) %MON dynstat_eta_del2             =   2.0714027933271E-01
(PID.TID 0000.0001) %MON dynstat_uvel_max             =   2.4626173484243E-03
(PID.TID 0000.0001) %MON dynstat_uvel_min             =  -3.0404638775963E-03
(PID.TID 0000.0001) %MON dynstat_uvel_mean            =  -1.1355189074097E-07
(PID.TID 0000.0001) %MON dynstat_uvel_sd              =   1.0125948682149E-04
(PID.TID 0000.0001) %MON dynstat_uvel_del2            =   3.3961890046020E-07
(PID.TID 0000.0001) %MON dynstat_vvel_max             =   4.2184740105675E-03
(PID.TID 0000.0001) %MON dynstat_vvel_min             =  -3.1859522881277E-03
(PID.TID 0000.0001) %MON dynstat_vvel_mean            =   1.4451979174718E-05
(PID.TID 0000.0001) %MON dynstat_vvel_sd              =   1.3811365985948E-04
(PID.TID 0000.0001) %MON dynstat_vvel_del2            =   5.0204800610376E-07
(PID.TID 0000.0001) %MON dynstat_wvel_max             =   2.0795530620383E-04
(PID.TID 0000.0001) %MON dynstat_wvel_min             =  -2.1942117194813E-04
(PID.TID 0000.0001) %MON dynstat_wvel_mean            =   5.6154754807051E-09
(PID.TID 0000.0001) %MON dynstat_wvel_sd              =   3.7345222814406E-05
(PID.TID 0000.0001) %MON dynstat_wvel_del2            =   1.8718219618973E-07
(PID.TID 0000.0001) %MON dynstat_theta_max            =   1.2000000000000E+00
(PID.TID 0000.0001) %MON dynstat_theta_min            =  -1.0000000000000E+00
(PID.TID 0000.0001) %MON dynstat_theta_mean           =   5.6909111845868E-01
(PID.TID 0000.0001) %MON dynstat_theta_sd             =   8.6857728234102E-01
(PID.TID 0000.0001) %MON dynstat_theta_del2           =   1.4037987401871E-06
(PID.TID 0000.0001) %MON dynstat_salt_max             =   3.4700000000000E+01
(PID.TID 0000.0001) %MON dynstat_salt_min             =   3.4000000000000E+01
(PID.TID 0000.0001) %MON dynstat_salt_mean            =   3.4499250592236E+01
(PID.TID 0000.0001) %MON dynstat_salt_sd              =   2.7636401866684E-01
(PID.TID 0000.0001) %MON dynstat_salt_del2            =   4.5580946640259E-07
(PID.TID 0000.0001) %MON advcfl_uvel_max              =   3.0404638775963E-04
(PID.TID 0000.0001) %MON advcfl_vvel_max              =   4.2184740105675E-04
(PID.TID 0000.0001) %MON advcfl_wvel_max              =   1.0971058597406E-03
(PID.TID 0000.0001) %MON advcfl_W_hf_max              =   1.0971058597406E-03
(PID.TID 0000.0001) %MON pe_b_mean                    =  -8.3119784255262E-01
(PID.TID 0000.0001) %MON ke_max                       =   7.7818020041616E-06
(PID.TID 0000.0001) %MON ke_mean                      =   1.4665659977869E-08
(PID.TID 0000.0001) %MON ke_vol                       =   4.2725399421132E+12
(PID.TID 0000.0001) // =======================================================
(PID.TID 0000.0001) // End MONITOR dynamic field statistics
(PID.TID 0000.0001) // =======================================================
(PID.TID 0000.0001) // =======================================================
(PID.TID 0000.0001) // Begin OBCS MONITOR field statistics
(PID.TID 0000.0001) // =======================================================
(PID.TID 0000.0001) %MON obc_N_vVel_max               =   1.4322634812963E-05
(PID.TID 0000.0001) %MON obc_N_vVel_min               =   1.4322634812962E-05
(PID.TID 0000.0001) %MON obc_N_vVel_mean              =   1.4322634812962E-05
(PID.TID 0000.0001) %MON obc_N_vVel_sd                =   4.7313396968741E-12
(PID.TID 0000.0001) %MON obc_N_vVel_Int               =   9.4529389765552E+02
(PID.TID 0000.0001) // =======================================================
(PID.TID 0000.0001) // End OBCS MONITOR field statistics
(PID.TID 0000.0001) // =======================================================
 cg2d: Sum(rhs),rhsMax =   4.51711196807547E+00  2.99874236486370E+02
(PID.TID 0000.0001)      cg2d_init_res =   7.49552224154982E-06
(PID.TID 0000.0001)      cg2d_iters(min,last) =      -1      75
(PID.TID 0000.0001)      cg2d_last_res =   8.57612649035567E-12
(PID.TID 0000.0001) // =======================================================
(PID.TID 0000.0001) // Begin MONITOR dynamic field statistics
(PID.TID 0000.0001) // =======================================================
(PID.TID 0000.0001) %MON time_tsnumber                =                   261
(PID.TID 0000.0001) %MON time_secondsf                =   2.6100000000000E+04
(PID.TID 0000.0001) %MON dynstat_eta_max              =   5.7990951975583E+00
(PID.TID 0000.0001) %MON dynstat_eta_min              =  -1.4195231326777E+01
(PID.TID 0000.0001) %MON dynstat_eta_mean             =  -2.5084546343520E+00
(PID.TID 0000.0001) %MON dynstat_eta_sd               =   4.9515115227086E+00
(PID.TID 0000.0001) %MON dynstat_eta_del2             =   2.0714028128361E-01
(PID.TID 0000.0001) %MON dynstat_uvel_max             =   2.4561442765858E-03
(PID.TID 0000.0001) %MON dynstat_uvel_min             =  -3.0407818685703E-03
(PID.TID 0000.0001) %MON dynstat_uvel_mean            =  -1.1408694013912E-07
(PID.TID 0000.0001) %MON dynstat_uvel_sd              =   1.0157239052877E-04
(PID.TID 0000.0001) %MON dynstat_uvel_del2            =   3.3902876660508E-07
(PID.TID 0000.0001) %MON dynstat_vvel_max             =   4.2201648599427E-03
(PID.TID 0000.0001) %MON dynstat_vvel_min             =  -3.1844576193292E-03
(PID.TID 0000.0001) %MON dynstat_vvel_mean            =   1.4435206360912E-05
(PID.TID 0000.0001) %MON dynstat_vvel_sd              =   1.3821141343114E-04
(PID.TID 0000.0001) %MON dynstat_vvel_del2            =   5.0109530076239E-07
(PID.TID 0000.0001) %MON dynstat_wvel_max             =   2.0749088225205E-04
(PID.TID 0000.0001) %MON dynstat_wvel_min             =  -2.1852423590549E-04
(PID.TID 0000.0001) %MON dynstat_wvel_mean            =   5.7275293593886E-09
(PID.TID 0000.0001) %MON dynstat_wvel_sd              =   3.7280902539853E-05
(PID.TID 0000.0001) %MON dynstat_wvel_del2            =   1.8692265305622E-07
(PID.TID 0000.0001) %MON dynstat_theta_max            =   1.2000000000000E+00
(PID.TID 0000.0001) %MON dynstat_theta_min            =  -1.0000000000000E+00
(PID.TID 0000.0001) %MON dynstat_theta_mean           =   5.6909085991530E-01
(PID.TID 0000.0001) %MON dynstat_theta_sd             =   8.6857714793431E-01
(PID.TID 0000.0001) %MON dynstat_theta_del2           =   1.3990860746365E-06
(PID.TID 0000.0001) %MON dynstat_salt_max             =   3.4700000000000E+01
(PID.TID 0000.0001) %MON dynstat_salt_min             =   3.4000000000000E+01
(PID.TID 0000.0001) %MON dynstat_salt_mean            =   3.4499250488745E+01
(PID.TID 0000.0001) %MON dynstat_salt_sd              =   2.7636397014358E-01
(PID.TID 0000.0001) %MON dynstat_salt_del2            =   4.5444472158138E-07
(PID.TID 0000.0001) %MON advcfl_uvel_max              =   3.0407818685703E-04
(PID.TID 0000.0001) %MON advcfl_vvel_max              =   4.2201648599427E-04
(PID.TID 0000.0001) %MON advcfl_wvel_max              =   1.0926211795275E-03
(PID.TID 0000.0001) %MON advcfl_W_hf_max              =   1.0926211795275E-03
(PID.TID 0000.0001) %MON pe_b_mean                    =  -8.3120179625110E-01
(PID.TID 0000.0001) %MON ke_max                       =   7.8080129043434E-06
(PID.TID 0000.0001) %MON ke_mean                      =   1.4710030162057E-08
(PID.TID 0000.0001) %MON ke_vol                       =   4.2725398607042E+12
(PID.TID 0000.0001) // =======================================================
(PID.TID 0000.0001) // End MONITOR dynamic field statistics
(PID.TID 0000.0001) // =======================================================
(PID.TID 0000.0001) // =======================================================
(PID.TID 0000.0001) // Begin OBCS MONITOR field statistics
(PID.TID 0000.0001) // =======================================================
(PID.TID 0000.0001) %MON obc_N_vVel_max               =   1.4296068376006E-05
(PID.TID 0000.0001) %MON obc_N_vVel_min               =   1.4296068376006E-05
(PID.TID 0000.0001) %MON obc_N_vVel_mean              =   1.4296068376006E-05
(PID.TID 0000.0001) %MON obc_N_vVel_sd                =  -9.1248361322256E-24
(PID.TID 0000.0001) %MON obc_N_vVel_Int               =   9.4354051281639E+02
(PID.TID 0000.0001) // =======================================================
(PID.TID 0000.0001) // End OBCS MONITOR field statistics
(PID.TID 0000.0001) // =======================================================
 cg2d: Sum(rhs),rhsMax =   4.51713538828364E+00  2.99874314651767E+02
(PID.TID 0000.0001)      cg2d_init_res =   7.49823462987538E-06
(PID.TID 0000.0001)      cg2d_iters(min,last) =      -1      75
(PID.TID 0000.0001)      cg2d_last_res =   8.67637068218140E-12
(PID.TID 0000.0001) // =======================================================
(PID.TID 0000.0001) // Begin MONITOR dynamic field statistics
(PID.TID 0000.0001) // =======================================================
(PID.TID 0000.0001) %MON time_tsnumber                =                   262
(PID.TID 0000.0001) %MON time_secondsf                =   2.6200000000000E+04
(PID.TID 0000.0001) %MON dynstat_eta_max              =   5.7990617446800E+00
(PID.TID 0000.0001) %MON dynstat_eta_min              =  -1.4195247205493E+01
(PID.TID 0000.0001) %MON dynstat_eta_mean             =  -2.5084682939830E+00
(PID.TID 0000.0001) %MON dynstat_eta_sd               =   4.9515159875114E+00
(PID.TID 0000.0001) %MON dynstat_eta_del2             =   2.0714028323894E-01
(PID.TID 0000.0001) %MON dynstat_uvel_max             =   2.4495892888545E-03
(PID.TID 0000.0001) %MON dynstat_uvel_min             =  -3.0410366511529E-03
(PID.TID 0000.0001) %MON dynstat_uvel_mean            =  -1.1477915170156E-07
(PID.TID 0000.0001) %MON dynstat_uvel_sd              =   1.0188749310289E-04
(PID.TID 0000.0001) %MON dynstat_uvel_del2            =   3.3844444123223E-07
(PID.TID 0000.0001) %MON dynstat_vvel_max             =   4.2217480340483E-03
(PID.TID 0000.0001) %MON dynstat_vvel_min             =  -3.1828502731397E-03
(PID.TID 0000.0001) %MON dynstat_vvel_mean            =   1.4432726601159E-05
(PID.TID 0000.0001) %MON dynstat_vvel_sd              =   1.3831376454203E-04
(PID.TID 0000.0001) %MON dynstat_vvel_del2            =   5.0021675417595E-07
(PID.TID 0000.0001) %MON dynstat_wvel_max             =   2.0702075563594E-04
(PID.TID 0000.0001) %MON dynstat_wvel_min             =  -2.1393929983035E-04
(PID.TID 0000.0001) %MON dynstat_wvel_mean            =   5.8542100868168E-09
(PID.TID 0000.0001) %MON dynstat_wvel_sd              =   3.7222807672908E-05
(PID.TID 0000.0001) %MON dynstat_wvel_del2            =   1.8674550427178E-07
(PID.TID 0000.0001) %MON dynstat_theta_max            =   1.2000000000000E+00
(PID.TID 0000.0001) %MON dynstat_theta_min            =  -1.0000000000000E+00
(PID.TID 0000.0001) %MON dynstat_theta_mean           =   5.6909060133792E-01
(PID.TID 0000.0001) %MON dynstat_theta_sd             =   8.6857701353564E-01
(PID.TID 0000.0001) %MON dynstat_theta_del2           =   1.3943461699411E-06
(PID.TID 0000.0001) %MON dynstat_salt_max             =   3.4700000000000E+01
(PID.TID 0000.0001) %MON dynstat_salt_min             =   3.4000000000000E+01
(PID.TID 0000.0001) %MON dynstat_salt_mean            =   3.4499250385240E+01
(PID.TID 0000.0001) %MON dynstat_salt_sd              =   2.7636392162155E-01
(PID.TID 0000.0001) %MON dynstat_salt_del2            =   4.5307205673269E-07
(PID.TID 0000.0001) %MON advcfl_uvel_max              =   3.0410366511529E-04
(PID.TID 0000.0001) %MON advcfl_vvel_max              =   4.2217480340483E-04
(PID.TID 0000.0001) %MON advcfl_wvel_max              =   1.0696964991518E-03
(PID.TID 0000.0001) %MON advcfl_W_hf_max              =   1.0696964991518E-03
(PID.TID 0000.0001) %MON pe_b_mean                    =  -8.3120575008423E-01
(PID.TID 0000.0001) %MON ke_max                       =   7.8339908682086E-06
(PID.TID 0000.0001) %MON ke_mean                      =   1.4755566381446E-08
(PID.TID 0000.0001) %MON ke_vol                       =   4.2725397794719E+12
(PID.TID 0000.0001) // =======================================================
(PID.TID 0000.0001) // End MONITOR dynamic field statistics
(PID.TID 0000.0001) // =======================================================
(PID.TID 0000.0001) // =======================================================
(PID.TID 0000.0001) // Begin OBCS MONITOR field statistics
(PID.TID 0000.0001) // =======================================================
(PID.TID 0000.0001) %MON obc_N_vVel_max               =   1.4282042778808E-05
(PID.TID 0000.0001) %MON obc_N_vVel_min               =   1.4282042778808E-05
(PID.TID 0000.0001) %MON obc_N_vVel_mean              =   1.4282042778808E-05
(PID.TID 0000.0001) %MON obc_N_vVel_sd                =  -9.3057818912216E-25
(PID.TID 0000.0001) %MON obc_N_vVel_Int               =   9.4261482340133E+02
(PID.TID 0000.0001) // =======================================================
(PID.TID 0000.0001) // End OBCS MONITOR field statistics
(PID.TID 0000.0001) // =======================================================
 cg2d: Sum(rhs),rhsMax =   4.51715880688148E+00  2.99874392711563E+02
(PID.TID 0000.0001)      cg2d_init_res =   7.50387877215957E-06
(PID.TID 0000.0001)      cg2d_iters(min,last) =      -1      75
(PID.TID 0000.0001)      cg2d_last_res =   8.81704619523396E-12
(PID.TID 0000.0001) // =======================================================
(PID.TID 0000.0001) // Begin MONITOR dynamic field statistics
(PID.TID 0000.0001) // =======================================================
(PID.TID 0000.0001) %MON time_tsnumber                =                   263
(PID.TID 0000.0001) %MON time_secondsf                =   2.6300000000000E+04
(PID.TID 0000.0001) %MON dynstat_eta_max              =   5.7990282678558E+00
(PID.TID 0000.0001) %MON dynstat_eta_min              =  -1.4195263114318E+01
(PID.TID 0000.0001) %MON dynstat_eta_mean             =  -2.5084819518431E+00
(PID.TID 0000.0001) %MON dynstat_eta_sd               =   4.9515204627914E+00
(PID.TID 0000.0001) %MON dynstat_eta_del2             =   2.0714028519927E-01
(PID.TID 0000.0001) %MON dynstat_uvel_max             =   2.4429523800986E-03
(PID.TID 0000.0001) %MON dynstat_uvel_min             =  -3.0412279945278E-03
(PID.TID 0000.0001) %MON dynstat_uvel_mean            =  -1.1556879049313E-07
(PID.TID 0000.0001) %MON dynstat_uvel_sd              =   1.0220477497862E-04
(PID.TID 0000.0001) %MON dynstat_uvel_del2            =   3.3786573808040E-07
(PID.TID 0000.0001) %MON dynstat_vvel_max             =   4.2232219873739E-03
(PID.TID 0000.0001) %MON dynstat_vvel_min             =  -3.1811327249276E-03
(PID.TID 0000.0001) %MON dynstat_vvel_mean            =   1.4443650557300E-05
(PID.TID 0000.0001) %MON dynstat_vvel_sd              =   1.3841903591389E-04
(PID.TID 0000.0001) %MON dynstat_vvel_del2            =   4.9937583308984E-07
(PID.TID 0000.0001) %MON dynstat_wvel_max             =   2.0654501858775E-04
(PID.TID 0000.0001) %MON dynstat_wvel_min             =  -2.0574201263097E-04
(PID.TID 0000.0001) %MON dynstat_wvel_mean            =   5.9872456147314E-09
(PID.TID 0000.0001) %MON dynstat_wvel_sd              =   3.7168022466257E-05
(PID.TID 0000.0001) %MON dynstat_wvel_del2            =   1.8660586753568E-07
(PID.TID 0000.0001) %MON dynstat_theta_max            =   1.2000000000000E+00
(PID.TID 0000.0001) %MON dynstat_theta_min            =  -1.0000000000000E+00
(PID.TID 0000.0001) %MON dynstat_theta_mean           =   5.6909034273129E-01
(PID.TID 0000.0001) %MON dynstat_theta_sd             =   8.6857687915837E-01
(PID.TID 0000.0001) %MON dynstat_theta_del2           =   1.3896168866438E-06
(PID.TID 0000.0001) %MON dynstat_salt_max             =   3.4700000000000E+01
(PID.TID 0000.0001) %MON dynstat_salt_min             =   3.4000000000000E+01
(PID.TID 0000.0001) %MON dynstat_salt_mean            =   3.4499250281723E+01
(PID.TID 0000.0001) %MON dynstat_salt_sd              =   2.7636387310523E-01
(PID.TID 0000.0001) %MON dynstat_salt_del2            =   4.5170323442869E-07
(PID.TID 0000.0001) %MON advcfl_uvel_max              =   3.0412279945278E-04
(PID.TID 0000.0001) %MON advcfl_vvel_max              =   4.2232219873739E-04
(PID.TID 0000.0001) %MON advcfl_wvel_max              =   1.0327250929388E-03
(PID.TID 0000.0001) %MON advcfl_W_hf_max              =   1.0327250929388E-03
(PID.TID 0000.0001) %MON pe_b_mean                    =  -8.3120970737941E-01
(PID.TID 0000.0001) %MON ke_max                       =   7.8597289877594E-06
(PID.TID 0000.0001) %MON ke_mean                      =   1.4802025010915E-08
(PID.TID 0000.0001) %MON ke_vol                       =   4.2725396983337E+12
(PID.TID 0000.0001) // =======================================================
(PID.TID 0000.0001) // End MONITOR dynamic field statistics
(PID.TID 0000.0001) // =======================================================
(PID.TID 0000.0001) // =======================================================
(PID.TID 0000.0001) // Begin OBCS MONITOR field statistics
(PID.TID 0000.0001) // =======================================================
(PID.TID 0000.0001) %MON obc_N_vVel_max               =   1.4280669012453E-05
(PID.TID 0000.0001) %MON obc_N_vVel_min               =   1.4280669012453E-05
(PID.TID 0000.0001) %MON obc_N_vVel_mean              =   1.4280669012453E-05
(PID.TID 0000.0001) %MON obc_N_vVel_sd                =   3.2034683507858E-12
(PID.TID 0000.0001) %MON obc_N_vVel_Int               =   9.4252415482190E+02
(PID.TID 0000.0001) // =======================================================
(PID.TID 0000.0001) // End OBCS MONITOR field statistics
(PID.TID 0000.0001) // =======================================================
 cg2d: Sum(rhs),rhsMax =   4.51718224799159E+00  2.99874470662752E+02
(PID.TID 0000.0001)      cg2d_init_res =   7.51111677948366E-06
(PID.TID 0000.0001)      cg2d_iters(min,last) =      -1      75
(PID.TID 0000.0001)      cg2d_last_res =   8.98737262020181E-12
(PID.TID 0000.0001) // =======================================================
(PID.TID 0000.0001) // Begin MONITOR dynamic field statistics
(PID.TID 0000.0001) // =======================================================
(PID.TID 0000.0001) %MON time_tsnumber                =                   264
(PID.TID 0000.0001) %MON time_secondsf                =   2.6400000000000E+04
(PID.TID 0000.0001) %MON dynstat_eta_max              =   5.7989947539893E+00
(PID.TID 0000.0001) %MON dynstat_eta_min              =  -1.4195279079517E+01
(PID.TID 0000.0001) %MON dynstat_eta_mean             =  -2.5084956213031E+00
(PID.TID 0000.0001) %MON dynstat_eta_sd               =   4.9515249519632E+00
(PID.TID 0000.0001) %MON dynstat_eta_del2             =   2.0714028716507E-01
(PID.TID 0000.0001) %MON dynstat_uvel_max             =   2.4362341909345E-03
(PID.TID 0000.0001) %MON dynstat_uvel_min             =  -3.0413557963591E-03
(PID.TID 0000.0001) %MON dynstat_uvel_mean            =  -1.1638847405620E-07
(PID.TID 0000.0001) %MON dynstat_uvel_sd              =   1.0252422295896E-04
(PID.TID 0000.0001) %MON dynstat_uvel_del2            =   3.3729247532288E-07
(PID.TID 0000.0001) %MON dynstat_vvel_max             =   4.2245850698546E-03
(PID.TID 0000.0001) %MON dynstat_vvel_min             =  -3.1793076880202E-03
(PID.TID 0000.0001) %MON dynstat_vvel_mean            =   1.4466916005486E-05
(PID.TID 0000.0001) %MON dynstat_vvel_sd              =   1.3852535402967E-04
(PID.TID 0000.0001) %MON dynstat_vvel_del2            =   4.9853310456871E-07
(PID.TID 0000.0001) %MON dynstat_wvel_max             =   2.0606372855395E-04
(PID.TID 0000.0001) %MON dynstat_wvel_min             =  -1.9407325157421E-04
(PID.TID 0000.0001) %MON dynstat_wvel_mean            =   6.1217179438228E-09
(PID.TID 0000.0001) %MON dynstat_wvel_sd              =   3.7113331471637E-05
(PID.TID 0000.0001) %MON dynstat_wvel_del2            =   1.8645570062786E-07
(PID.TID 0000.0001) %MON dynstat_theta_max            =   1.2000000000000E+00
(PID.TID 0000.0001) %MON dynstat_theta_min            =  -1.0000000000000E+00
(PID.TID 0000.0001) %MON dynstat_theta_mean           =   5.6909008410102E-01
(PID.TID 0000.0001) %MON dynstat_theta_sd             =   8.6857674470314E-01
(PID.TID 0000.0001) %MON dynstat_theta_del2           =   1.3849370064992E-06
(PID.TID 0000.0001) %MON dynstat_salt_max             =   3.4700000000000E+01
(PID.TID 0000.0001) %MON dynstat_salt_min             =   3.4000000000000E+01
(PID.TID 0000.0001) %MON dynstat_salt_mean            =   3.4499250178197E+01
(PID.TID 0000.0001) %MON dynstat_salt_sd              =   2.7636382456294E-01
(PID.TID 0000.0001) %MON dynstat_salt_del2            =   4.5035029370105E-07
(PID.TID 0000.0001) %MON advcfl_uvel_max              =   3.0413557963591E-04
(PID.TID 0000.0001) %MON advcfl_vvel_max              =   4.2245850698546E-04
(PID.TID 0000.0001) %MON advcfl_wvel_max              =   1.0303186427698E-03
(PID.TID 0000.0001) %MON advcfl_W_hf_max              =   1.0303186427698E-03
(PID.TID 0000.0001) %MON pe_b_mean                    =  -8.3121367116857E-01
(PID.TID 0000.0001) %MON ke_max                       =   7.8852195798088E-06
(PID.TID 0000.0001) %MON ke_mean                      =   1.4849133305496E-08
(PID.TID 0000.0001) %MON ke_vol                       =   4.2725396172061E+12
(PID.TID 0000.0001) // =======================================================
(PID.TID 0000.0001) // End MONITOR dynamic field statistics
(PID.TID 0000.0001) // =======================================================
(PID.TID 0000.0001) // =======================================================
(PID.TID 0000.0001) // Begin OBCS MONITOR field statistics
(PID.TID 0000.0001) // =======================================================
(PID.TID 0000.0001) %MON obc_N_vVel_max               =   1.4291328790529E-05
(PID.TID 0000.0001) %MON obc_N_vVel_min               =   1.4291328790529E-05
(PID.TID 0000.0001) %MON obc_N_vVel_mean              =   1.4291328790529E-05
(PID.TID 0000.0001) %MON obc_N_vVel_sd                =   3.1423667135380E-12
(PID.TID 0000.0001) %MON obc_N_vVel_Int               =   9.4322770017491E+02
(PID.TID 0000.0001) // =======================================================
(PID.TID 0000.0001) // End OBCS MONITOR field statistics
(PID.TID 0000.0001) // =======================================================
 cg2d: Sum(rhs),rhsMax =   4.51720573346868E+00  2.99874548502189E+02
(PID.TID 0000.0001)      cg2d_init_res =   7.51854745781434E-06
(PID.TID 0000.0001)      cg2d_iters(min,last) =      -1      75
(PID.TID 0000.0001)      cg2d_last_res =   9.16571841426704E-12
(PID.TID 0000.0001) // =======================================================
(PID.TID 0000.0001) // Begin MONITOR dynamic field statistics
(PID.TID 0000.0001) // =======================================================
(PID.TID 0000.0001) %MON time_tsnumber                =                   265
(PID.TID 0000.0001) %MON time_secondsf                =   2.6500000000000E+04
(PID.TID 0000.0001) %MON dynstat_eta_max              =   5.7989611901593E+00
(PID.TID 0000.0001) %MON dynstat_eta_min              =  -1.4195295124313E+01
(PID.TID 0000.0001) %MON dynstat_eta_mean             =  -2.5085093144730E+00
(PID.TID 0000.0001) %MON dynstat_eta_sd               =   4.9515294578240E+00
(PID.TID 0000.0001) %MON dynstat_eta_del2             =   2.0714028913677E-01
(PID.TID 0000.0001) %MON dynstat_uvel_max             =   2.4294357625809E-03
(PID.TID 0000.0001) %MON dynstat_uvel_min             =  -3.0414202563414E-03
(PID.TID 0000.0001) %MON dynstat_uvel_mean            =  -1.1717091895457E-07
(PID.TID 0000.0001) %MON dynstat_uvel_sd              =   1.0284582408014E-04
(PID.TID 0000.0001) %MON dynstat_uvel_del2            =   3.3672447891036E-07
(PID.TID 0000.0001) %MON dynstat_vvel_max             =   4.2258358911695E-03
(PID.TID 0000.0001) %MON dynstat_vvel_min             =  -3.1773776179556E-03
(PID.TID 0000.0001) %MON dynstat_vvel_mean            =   1.4501272563854E-05
(PID.TID 0000.0001) %MON dynstat_vvel_sd              =   1.3863089959858E-04
(PID.TID 0000.0001) %MON dynstat_vvel_del2            =   4.9765139830855E-07
(PID.TID 0000.0001) %MON dynstat_wvel_max             =   2.0557693282271E-04
(PID.TID 0000.0001) %MON dynstat_wvel_min             =  -1.8810241194489E-04
(PID.TID 0000.0001) %MON dynstat_wvel_mean            =   6.2554825772889E-09
(PID.TID 0000.0001) %MON dynstat_wvel_sd              =   3.7055644120949E-05
(PID.TID 0000.0001) %MON dynstat_wvel_del2            =   1.8625012514371E-07
(PID.TID 0000.0001) %MON dynstat_theta_max            =   1.2000000000000E+00
(PID.TID 0000.0001) %MON dynstat_theta_min            =  -1.0000000000000E+00
(PID.TID 0000.0001) %MON dynstat_theta_mean           =   5.6908982545243E-01
(PID.TID 0000.0001) %MON dynstat_theta_sd             =   8.6857661020274E-01
(PID.TID 0000.0001) %MON dynstat_theta_del2           =   1.3803418397312E-06
(PID.TID 0000.0001) %MON dynstat_salt_max             =   3.4700000000000E+01
(PID.TID 0000.0001) %MON dynstat_salt_min             =   3.4000000000000E+01
(PID.TID 0000.0001) %MON dynstat_salt_mean            =   3.4499250074662E+01
(PID.TID 0000.0001) %MON dynstat_salt_sd              =   2.7636377600515E-01
(PID.TID 0000.0001) %MON dynstat_salt_del2            =   4.4902419980234E-07
(PID.TID 0000.0001) %MON advcfl_uvel_max              =   3.0414202563414E-04
(PID.TID 0000.0001) %MON advcfl_vvel_max              =   4.2258358911695E-04
(PID.TID 0000.0001) %MON advcfl_wvel_max              =   1.0278846641135E-03
(PID.TID 0000.0001) %MON advcfl_W_hf_max              =   1.0278846641135E-03
(PID.TID 0000.0001) %MON pe_b_mean                    =  -8.3121764414122E-01
(PID.TID 0000.0001) %MON ke_max                       =   7.9104555284320E-06
(PID.TID 0000.0001) %MON ke_mean                      =   1.4896622981989E-08
(PID.TID 0000.0001) %MON ke_vol                       =   4.2725395360095E+12
(PID.TID 0000.0001) // =======================================================
(PID.TID 0000.0001) // End MONITOR dynamic field statistics
(PID.TID 0000.0001) // =======================================================
(PID.TID 0000.0001) // =======================================================
(PID.TID 0000.0001) // Begin OBCS MONITOR field statistics
(PID.TID 0000.0001) // =======================================================
(PID.TID 0000.0001) %MON obc_N_vVel_max               =   1.4312889379412E-05
(PID.TID 0000.0001) %MON obc_N_vVel_min               =   1.4312889379411E-05
(PID.TID 0000.0001) %MON obc_N_vVel_mean              =   1.4312889379411E-05
(PID.TID 0000.0001) %MON obc_N_vVel_sd                =   3.3106106863127E-12
(PID.TID 0000.0001) %MON obc_N_vVel_Int               =   9.4465069904115E+02
(PID.TID 0000.0001) // =======================================================
(PID.TID 0000.0001) // End OBCS MONITOR field statistics
(PID.TID 0000.0001) // =======================================================
 cg2d: Sum(rhs),rhsMax =   4.51722928244687E+00  2.99874626224291E+02
(PID.TID 0000.0001)      cg2d_init_res =   7.52486508346398E-06
(PID.TID 0000.0001)      cg2d_iters(min,last) =      -1      75
(PID.TID 0000.0001)      cg2d_last_res =   9.31195895977775E-12
(PID.TID 0000.0001) // =======================================================
(PID.TID 0000.0001) // Begin MONITOR dynamic field statistics
(PID.TID 0000.0001) // =======================================================
(PID.TID 0000.0001) %MON time_tsnumber                =                   266
(PID.TID 0000.0001) %MON time_secondsf                =   2.6600000000000E+04
(PID.TID 0000.0001) %MON dynstat_eta_max              =   5.7989275649142E+00
(PID.TID 0000.0001) %MON dynstat_eta_min              =  -1.4195311267422E+01
(PID.TID 0000.0001) %MON dynstat_eta_mean             =  -2.5085230419318E+00
(PID.TID 0000.0001) %MON dynstat_eta_sd               =   4.9515339825742E+00
(PID.TID 0000.0001) %MON dynstat_eta_del2             =   2.0714029111441E-01
(PID.TID 0000.0001) %MON dynstat_uvel_max             =   2.4225581764679E-03
(PID.TID 0000.0001) %MON dynstat_uvel_min             =  -3.0414218081454E-03
(PID.TID 0000.0001) %MON dynstat_uvel_mean            =  -1.1785746849969E-07
(PID.TID 0000.0001) %MON dynstat_uvel_sd              =   1.0316956103298E-04
(PID.TID 0000.0001) %MON dynstat_uvel_del2            =   3.3616158527246E-07
(PID.TID 0000.0001) %MON dynstat_vvel_max             =   4.2269732083930E-03
(PID.TID 0000.0001) %MON dynstat_vvel_min             =  -3.1753447584082E-03
(PID.TID 0000.0001) %MON dynstat_vvel_mean            =   1.4545275287366E-05
(PID.TID 0000.0001) %MON dynstat_vvel_sd              =   1.3873414393198E-04
(PID.TID 0000.0001) %MON dynstat_vvel_del2            =   4.9670052250871E-07
(PID.TID 0000.0001) %MON dynstat_wvel_max             =   2.0508468860438E-04
(PID.TID 0000.0001) %MON dynstat_wvel_min             =  -1.8691195864212E-04
(PID.TID 0000.0001) %MON dynstat_wvel_mean            =   6.3873461812378E-09
(PID.TID 0000.0001) %MON dynstat_wvel_sd              =   3.6992391697103E-05
(PID.TID 0000.0001) %MON dynstat_wvel_del2            =   1.8595307797743E-07
(PID.TID 0000.0001) %MON dynstat_theta_max            =   1.2000000000000E+00
(PID.TID 0000.0001) %MON dynstat_theta_min            =  -1.0000000000000E+00
(PID.TID 0000.0001) %MON dynstat_theta_mean           =   5.6908956678978E-01
(PID.TID 0000.0001) %MON dynstat_theta_sd             =   8.6857647571302E-01
(PID.TID 0000.0001) %MON dynstat_theta_del2           =   1.3758587111797E-06
(PID.TID 0000.0001) %MON dynstat_salt_max             =   3.4700000000000E+01
(PID.TID 0000.0001) %MON dynstat_salt_min             =   3.4000000000000E+01
(PID.TID 0000.0001) %MON dynstat_salt_mean            =   3.4499249971121E+01
(PID.TID 0000.0001) %MON dynstat_salt_sd              =   2.7636372744972E-01
(PID.TID 0000.0001) %MON dynstat_salt_del2            =   4.4773342387732E-07
(PID.TID 0000.0001) %MON advcfl_uvel_max              =   3.0414218081454E-04
(PID.TID 0000.0001) %MON advcfl_vvel_max              =   4.2269732083930E-04
(PID.TID 0000.0001) %MON advcfl_wvel_max              =   1.0254234430219E-03
(PID.TID 0000.0001) %MON advcfl_W_hf_max              =   1.0254234430219E-03
(PID.TID 0000.0001) %MON pe_b_mean                    =  -8.3122162861120E-01
(PID.TID 0000.0001) %MON ke_max                       =   7.9354302207723E-06
(PID.TID 0000.0001) %MON ke_mean                      =   1.4944262284387E-08
(PID.TID 0000.0001) %MON ke_vol                       =   4.2725394546720E+12
(PID.TID 0000.0001) // =======================================================
(PID.TID 0000.0001) // End MONITOR dynamic field statistics
(PID.TID 0000.0001) // =======================================================
(PID.TID 0000.0001) // =======================================================
(PID.TID 0000.0001) // Begin OBCS MONITOR field statistics
(PID.TID 0000.0001) // =======================================================
(PID.TID 0000.0001) %MON obc_N_vVel_max               =   1.4343975219355E-05
(PID.TID 0000.0001) %MON obc_N_vVel_min               =   1.4343975219355E-05
(PID.TID 0000.0001) %MON obc_N_vVel_mean              =   1.4343975219355E-05
(PID.TID 0000.0001) %MON obc_N_vVel_sd                =  -1.1037691298754E-23
(PID.TID 0000.0001) %MON obc_N_vVel_Int               =   9.4670236447744E+02
(PID.TID 0000.0001) // =======================================================
(PID.TID 0000.0001) // End OBCS MONITOR field statistics
(PID.TID 0000.0001) // =======================================================
 cg2d: Sum(rhs),rhsMax =   4.51725291116352E+00  2.99874703819708E+02
(PID.TID 0000.0001)      cg2d_init_res =   7.52898307604152E-06
(PID.TID 0000.0001)      cg2d_iters(min,last) =      -1      75
(PID.TID 0000.0001)      cg2d_last_res =   9.40827127729171E-12
(PID.TID 0000.0001) // =======================================================
(PID.TID 0000.0001) // Begin MONITOR dynamic field statistics
(PID.TID 0000.0001) // =======================================================
(PID.TID 0000.0001) %MON time_tsnumber                =                   267
(PID.TID 0000.0001) %MON time_secondsf                =   2.6700000000000E+04
(PID.TID 0000.0001) %MON dynstat_eta_max              =   5.7988938693677E+00
(PID.TID 0000.0001) %MON dynstat_eta_min              =  -1.4195327523174E+01
(PID.TID 0000.0001) %MON dynstat_eta_mean             =  -2.5085368126183E+00
(PID.TID 0000.0001) %MON dynstat_eta_sd               =   4.9515385278063E+00
(PID.TID 0000.0001) %MON dynstat_eta_del2             =   2.0714029309812E-01
(PID.TID 0000.0001) %MON dynstat_uvel_max             =   2.4156023394095E-03
(PID.TID 0000.0001) %MON dynstat_uvel_min             =  -3.0413609658702E-03
(PID.TID 0000.0001) %MON dynstat_uvel_mean            =  -1.1840686544255E-07
(PID.TID 0000.0001) %MON dynstat_uvel_sd              =   1.0349541099048E-04
(PID.TID 0000.0001) %MON dynstat_uvel_del2            =   3.3560364328102E-07
(PID.TID 0000.0001) %MON dynstat_vvel_max             =   4.2279957245199E-03
(PID.TID 0000.0001) %MON dynstat_vvel_min             =  -3.1732113540661E-03
(PID.TID 0000.0001) %MON dynstat_vvel_mean            =   1.4597305493703E-05
(PID.TID 0000.0001) %MON dynstat_vvel_sd              =   1.3883403334526E-04
(PID.TID 0000.0001) %MON dynstat_vvel_del2            =   4.9566090347125E-07
(PID.TID 0000.0001) %MON dynstat_wvel_max             =   2.0458707109558E-04
(PID.TID 0000.0001) %MON dynstat_wvel_min             =  -1.8406207723564E-04
(PID.TID 0000.0001) %MON dynstat_wvel_mean            =   6.5158300907820E-09
(PID.TID 0000.0001) %MON dynstat_wvel_sd              =   3.6921841441824E-05
(PID.TID 0000.0001) %MON dynstat_wvel_del2            =   1.8554158253555E-07
(PID.TID 0000.0001) %MON dynstat_theta_max            =   1.2000000000000E+00
(PID.TID 0000.0001) %MON dynstat_theta_min            =  -1.0000000000000E+00
(PID.TID 0000.0001) %MON dynstat_theta_mean           =   5.6908930811562E-01
(PID.TID 0000.0001) %MON dynstat_theta_sd             =   8.6857634125370E-01
(PID.TID 0000.0001) %MON dynstat_theta_del2           =   1.3715030321724E-06
(PID.TID 0000.0001) %MON dynstat_salt_max             =   3.4700000000000E+01
(PID.TID 0000.0001) %MON dynstat_salt_min             =   3.4000000000000E+01
(PID.TID 0000.0001) %MON dynstat_salt_mean            =   3.4499249867573E+01
(PID.TID 0000.0001) %MON dynstat_salt_sd              =   2.7636367890265E-01
(PID.TID 0000.0001) %MON dynstat_salt_del2            =   4.4648272080687E-07
(PID.TID 0000.0001) %MON advcfl_uvel_max              =   3.0413609658702E-04
(PID.TID 0000.0001) %MON advcfl_vvel_max              =   4.2279957245199E-04
(PID.TID 0000.0001) %MON advcfl_wvel_max              =   1.0229353554779E-03
(PID.TID 0000.0001) %MON advcfl_W_hf_max              =   1.0229353554779E-03
(PID.TID 0000.0001) %MON pe_b_mean                    =  -8.3122562648395E-01
(PID.TID 0000.0001) %MON ke_max                       =   7.9601370811893E-06
(PID.TID 0000.0001) %MON ke_mean                      =   1.4991881739077E-08
(PID.TID 0000.0001) %MON ke_vol                       =   4.2725393731309E+12
(PID.TID 0000.0001) // =======================================================
(PID.TID 0000.0001) // End MONITOR dynamic field statistics
(PID.TID 0000.0001) // =======================================================
(PID.TID 0000.0001) // =======================================================
(PID.TID 0000.0001) // Begin OBCS MONITOR field statistics
(PID.TID 0000.0001) // =======================================================
(PID.TID 0000.0001) %MON obc_N_vVel_max               =   1.4383115432872E-05
(PID.TID 0000.0001) %MON obc_N_vVel_min               =   1.4383115432872E-05
(PID.TID 0000.0001) %MON obc_N_vVel_mean              =   1.4383115432872E-05
(PID.TID 0000.0001) %MON obc_N_vVel_sd                =  -1.8275521658593E-23
(PID.TID 0000.0001) %MON obc_N_vVel_Int               =   9.4928561856956E+02
(PID.TID 0000.0001) // =======================================================
(PID.TID 0000.0001) // End OBCS MONITOR field statistics
(PID.TID 0000.0001) // =======================================================
 cg2d: Sum(rhs),rhsMax =   4.51727663286356E+00  2.99874781275281E+02
(PID.TID 0000.0001)      cg2d_init_res =   7.53012001628282E-06
(PID.TID 0000.0001)      cg2d_iters(min,last) =      -1      75
(PID.TID 0000.0001)      cg2d_last_res =   9.46522214908403E-12
(PID.TID 0000.0001) // =======================================================
(PID.TID 0000.0001) // Begin MONITOR dynamic field statistics
(PID.TID 0000.0001) // =======================================================
(PID.TID 0000.0001) %MON time_tsnumber                =                   268
(PID.TID 0000.0001) %MON time_secondsf                =   2.6800000000000E+04
(PID.TID 0000.0001) %MON dynstat_eta_max              =   5.7988600978189E+00
(PID.TID 0000.0001) %MON dynstat_eta_min              =  -1.4195343902079E+01
(PID.TID 0000.0001) %MON dynstat_eta_mean             =  -2.5085506337776E+00
(PID.TID 0000.0001) %MON dynstat_eta_sd               =   4.9515430944756E+00
(PID.TID 0000.0001) %MON dynstat_eta_del2             =   2.0714029508804E-01
(PID.TID 0000.0001) %MON dynstat_uvel_max             =   2.4085689658389E-03
(PID.TID 0000.0001) %MON dynstat_uvel_min             =  -3.0412382143492E-03
(PID.TID 0000.0001) %MON dynstat_uvel_mean            =  -1.1880027872174E-07
(PID.TID 0000.0001) %MON dynstat_uvel_sd              =   1.0382334731354E-04
(PID.TID 0000.0001) %MON dynstat_uvel_del2            =   3.3505051589924E-07
(PID.TID 0000.0001) %MON dynstat_vvel_max             =   4.2289019816373E-03
(PID.TID 0000.0001) %MON dynstat_vvel_min             =  -3.1709797990773E-03
(PID.TID 0000.0001) %MON dynstat_vvel_mean            =   1.4655613736381E-05
(PID.TID 0000.0001) %MON dynstat_vvel_sd              =   1.3893010386837E-04
(PID.TID 0000.0001) %MON dynstat_vvel_del2            =   4.9452574022075E-07
(PID.TID 0000.0001) %MON dynstat_wvel_max             =   2.0408417099771E-04
(PID.TID 0000.0001) %MON dynstat_wvel_min             =  -1.8299002842380E-04
(PID.TID 0000.0001) %MON dynstat_wvel_mean            =   6.6389543578793E-09
(PID.TID 0000.0001) %MON dynstat_wvel_sd              =   3.6843293975736E-05
(PID.TID 0000.0001) %MON dynstat_wvel_del2            =   1.8500821453556E-07
(PID.TID 0000.0001) %MON dynstat_theta_max            =   1.2000000000000E+00
(PID.TID 0000.0001) %MON dynstat_theta_min            =  -1.0000000000000E+00
(PID.TID 0000.0001) %MON dynstat_theta_mean           =   5.6908904943231E-01
(PID.TID 0000.0001) %MON dynstat_theta_sd             =   8.6857620685560E-01
(PID.TID 0000.0001) %MON dynstat_theta_del2           =   1.3672754601439E-06
(PID.TID 0000.0001) %MON dynstat_salt_max             =   3.4700000000000E+01
(PID.TID 0000.0001) %MON dynstat_salt_min             =   3.4000000000000E+01
(PID.TID 0000.0001) %MON dynstat_salt_mean            =   3.4499249764019E+01
(PID.TID 0000.0001) %MON dynstat_salt_sd              =   2.7636363037389E-01
(PID.TID 0000.0001) %MON dynstat_salt_del2            =   4.4527229237205E-07
(PID.TID 0000.0001) %MON advcfl_uvel_max              =   3.0412382143492E-04
(PID.TID 0000.0001) %MON advcfl_vvel_max              =   4.2289019816373E-04
(PID.TID 0000.0001) %MON advcfl_wvel_max              =   1.0204208549886E-03
(PID.TID 0000.0001) %MON advcfl_W_hf_max              =   1.0204208549886E-03
(PID.TID 0000.0001) %MON pe_b_mean                    =  -8.3122963922977E-01
(PID.TID 0000.0001) %MON ke_max                       =   7.9845692285519E-06
(PID.TID 0000.0001) %MON ke_mean                      =   1.5039390977018E-08
(PID.TID 0000.0001) %MON ke_vol                       =   4.2725392913330E+12
(PID.TID 0000.0001) // =======================================================
(PID.TID 0000.0001) // End MONITOR dynamic field statistics
(PID.TID 0000.0001) // =======================================================
(PID.TID 0000.0001) // =======================================================
(PID.TID 0000.0001) // Begin OBCS MONITOR field statistics
(PID.TID 0000.0001) // =======================================================
(PID.TID 0000.0001) %MON obc_N_vVel_max               =   1.4428780136536E-05
(PID.TID 0000.0001) %MON obc_N_vVel_min               =   1.4428780136535E-05
(PID.TID 0000.0001) %MON obc_N_vVel_mean              =   1.4428780136535E-05
(PID.TID 0000.0001) %MON obc_N_vVel_sd                =   4.3706638249980E-12
(PID.TID 0000.0001) %MON obc_N_vVel_Int               =   9.5229948901133E+02
(PID.TID 0000.0001) // =======================================================
(PID.TID 0000.0001) // End OBCS MONITOR field statistics
(PID.TID 0000.0001) // =======================================================
 cg2d: Sum(rhs),rhsMax =   4.51730045768057E+00  2.99874858574599E+02
(PID.TID 0000.0001)      cg2d_init_res =   7.52783779256799E-06
(PID.TID 0000.0001)      cg2d_iters(min,last) =      -1      75
(PID.TID 0000.0001)      cg2d_last_res =   9.49859385598554E-12
(PID.TID 0000.0001) // =======================================================
(PID.TID 0000.0001) // Begin MONITOR dynamic field statistics
(PID.TID 0000.0001) // =======================================================
(PID.TID 0000.0001) %MON time_tsnumber                =                   269
(PID.TID 0000.0001) %MON time_secondsf                =   2.6900000000000E+04
(PID.TID 0000.0001) %MON dynstat_eta_max              =   5.7988262478272E+00
(PID.TID 0000.0001) %MON dynstat_eta_min              =  -1.4195360411253E+01
(PID.TID 0000.0001) %MON dynstat_eta_mean             =  -2.5085645108999E+00
(PID.TID 0000.0001) %MON dynstat_eta_sd               =   4.9515476829115E+00
(PID.TID 0000.0001) %MON dynstat_eta_del2             =   2.0714029708418E-01
(PID.TID 0000.0001) %MON dynstat_uvel_max             =   2.4014586728303E-03
(PID.TID 0000.0001) %MON dynstat_uvel_min             =  -3.0410539764087E-03
(PID.TID 0000.0001) %MON dynstat_uvel_mean            =  -1.1904054134376E-07
(PID.TID 0000.0001) %MON dynstat_uvel_sd              =   1.0415334229740E-04
(PID.TID 0000.0001) %MON dynstat_uvel_del2            =   3.3450208104284E-07
(PID.TID 0000.0001) %MON dynstat_vvel_max             =   4.2296903604271E-03
(PID.TID 0000.0001) %MON dynstat_vvel_min             =  -3.1686526686734E-03
(PID.TID 0000.0001) %MON dynstat_vvel_mean            =   1.4718374826639E-05
(PID.TID 0000.0001) %MON dynstat_vvel_sd              =   1.3902251297156E-04
(PID.TID 0000.0001) %MON dynstat_vvel_del2            =   4.9330144593937E-07
(PID.TID 0000.0001) %MON dynstat_wvel_max             =   2.0357608750631E-04
(PID.TID 0000.0001) %MON dynstat_wvel_min             =  -1.9009401403934E-04
(PID.TID 0000.0001) %MON dynstat_wvel_mean            =   6.7545505528069E-09
(PID.TID 0000.0001) %MON dynstat_wvel_sd              =   3.6757141338237E-05
(PID.TID 0000.0001) %MON dynstat_wvel_del2            =   1.8436155803107E-07
(PID.TID 0000.0001) %MON dynstat_theta_max            =   1.2000000000000E+00
(PID.TID 0000.0001) %MON dynstat_theta_min            =  -1.0000000000000E+00
(PID.TID 0000.0001) %MON dynstat_theta_mean           =   5.6908879074156E-01
(PID.TID 0000.0001) %MON dynstat_theta_sd             =   8.6857607249082E-01
(PID.TID 0000.0001) %MON dynstat_theta_del2           =   1.3631672976935E-06
(PID.TID 0000.0001) %MON dynstat_salt_max             =   3.4700000000000E+01
(PID.TID 0000.0001) %MON dynstat_salt_min             =   3.4000000000000E+01
(PID.TID 0000.0001) %MON dynstat_salt_mean            =   3.4499249660461E+01
(PID.TID 0000.0001) %MON dynstat_salt_sd              =   2.7636358185443E-01
(PID.TID 0000.0001) %MON dynstat_salt_del2            =   4.4409943385470E-07
(PID.TID 0000.0001) %MON advcfl_uvel_max              =   3.0410539764087E-04
(PID.TID 0000.0001) %MON advcfl_vvel_max              =   4.2296903604271E-04
(PID.TID 0000.0001) %MON advcfl_wvel_max              =   1.0178804375315E-03
(PID.TID 0000.0001) %MON advcfl_W_hf_max              =   1.0178804375315E-03
(PID.TID 0000.0001) %MON pe_b_mean                    =  -8.3123366786368E-01
(PID.TID 0000.0001) %MON ke_max                       =   8.0087193785935E-06
(PID.TID 0000.0001) %MON ke_mean                      =   1.5086784376344E-08
(PID.TID 0000.0001) %MON ke_vol                       =   4.2725392092354E+12
(PID.TID 0000.0001) // =======================================================
(PID.TID 0000.0001) // End MONITOR dynamic field statistics
(PID.TID 0000.0001) // =======================================================
(PID.TID 0000.0001) // =======================================================
(PID.TID 0000.0001) // Begin OBCS MONITOR field statistics
(PID.TID 0000.0001) // =======================================================
(PID.TID 0000.0001) %MON obc_N_vVel_max               =   1.4479388345569E-05
(PID.TID 0000.0001) %MON obc_N_vVel_min               =   1.4479388345569E-05
(PID.TID 0000.0001) %MON obc_N_vVel_mean              =   1.4479388345569E-05
(PID.TID 0000.0001) %MON obc_N_vVel_sd                =   3.1341298272514E-12
(PID.TID 0000.0001) %MON obc_N_vVel_Int               =   9.5563963080756E+02
(PID.TID 0000.0001) // =======================================================
(PID.TID 0000.0001) // End OBCS MONITOR field statistics
(PID.TID 0000.0001) // =======================================================
 cg2d: Sum(rhs),rhsMax =   4.51732439257725E+00  2.99874935699009E+02
(PID.TID 0000.0001)      cg2d_init_res =   7.52206693613743E-06
(PID.TID 0000.0001)      cg2d_iters(min,last) =      -1      75
(PID.TID 0000.0001)      cg2d_last_res =   9.52544709901394E-12
(PID.TID 0000.0001) // =======================================================
(PID.TID 0000.0001) // Begin MONITOR dynamic field statistics
(PID.TID 0000.0001) // =======================================================
(PID.TID 0000.0001) %MON time_tsnumber                =                   270
(PID.TID 0000.0001) %MON time_secondsf                =   2.7000000000000E+04
(PID.TID 0000.0001) %MON dynstat_eta_max              =   5.7987923197572E+00
(PID.TID 0000.0001) %MON dynstat_eta_min              =  -1.4195377054495E+01
(PID.TID 0000.0001) %MON dynstat_eta_mean             =  -2.5085784476957E+00
(PID.TID 0000.0001) %MON dynstat_eta_sd               =   4.9515522928596E+00
(PID.TID 0000.0001) %MON dynstat_eta_del2             =   2.0714029908631E-01
(PID.TID 0000.0001) %MON dynstat_uvel_max             =   2.3942720832135E-03
(PID.TID 0000.0001) %MON dynstat_uvel_min             =  -3.0408086266647E-03
(PID.TID 0000.0001) %MON dynstat_uvel_mean            =  -1.1914636955816E-07
(PID.TID 0000.0001) %MON dynstat_uvel_sd              =   1.0448536941184E-04
(PID.TID 0000.0001) %MON dynstat_uvel_del2            =   3.3395823273535E-07
(PID.TID 0000.0001) %MON dynstat_vvel_max             =   4.2303591290853E-03
(PID.TID 0000.0001) %MON dynstat_vvel_min             =  -3.1662326801394E-03
(PID.TID 0000.0001) %MON dynstat_vvel_mean            =   1.4783746803316E-05
(PID.TID 0000.0001) %MON dynstat_vvel_sd              =   1.3911198865921E-04
(PID.TID 0000.0001) %MON dynstat_vvel_del2            =   4.9200638421974E-07
(PID.TID 0000.0001) %MON dynstat_wvel_max             =   2.0306292124637E-04
(PID.TID 0000.0001) %MON dynstat_wvel_min             =  -2.0021925453542E-04
(PID.TID 0000.0001) %MON dynstat_wvel_mean            =   6.8605640130109E-09
(PID.TID 0000.0001) %MON dynstat_wvel_sd              =   3.6664782883079E-05
(PID.TID 0000.0001) %MON dynstat_wvel_del2            =   1.8362467886302E-07
(PID.TID 0000.0001) %MON dynstat_theta_max            =   1.2000000000000E+00
(PID.TID 0000.0001) %MON dynstat_theta_min            =  -1.0000000000000E+00
(PID.TID 0000.0001) %MON dynstat_theta_mean           =   5.6908853204455E-01
(PID.TID 0000.0001) %MON dynstat_theta_sd             =   8.6857593815415E-01
(PID.TID 0000.0001) %MON dynstat_theta_del2           =   1.3591569218675E-06
(PID.TID 0000.0001) %MON dynstat_salt_max             =   3.4700000000000E+01
(PID.TID 0000.0001) %MON dynstat_salt_min             =   3.4000000000000E+01
(PID.TID 0000.0001) %MON dynstat_salt_mean            =   3.4499249556898E+01
(PID.TID 0000.0001) %MON dynstat_salt_sd              =   2.7636353334261E-01
(PID.TID 0000.0001) %MON dynstat_salt_del2            =   4.4295742605698E-07
(PID.TID 0000.0001) %MON advcfl_uvel_max              =   3.0408086266647E-04
(PID.TID 0000.0001) %MON advcfl_vvel_max              =   4.2303591290853E-04
(PID.TID 0000.0001) %MON advcfl_wvel_max              =   1.0153146062319E-03
(PID.TID 0000.0001) %MON advcfl_W_hf_max              =   1.0153146062319E-03
(PID.TID 0000.0001) %MON pe_b_mean                    =  -8.3123771294229E-01
(PID.TID 0000.0001) %MON ke_max                       =   8.0325799029574E-06
(PID.TID 0000.0001) %MON ke_mean                      =   1.5134135251879E-08
(PID.TID 0000.0001) %MON ke_vol                       =   4.2725391268053E+12
(PID.TID 0000.0001) // =======================================================
(PID.TID 0000.0001) // End MONITOR dynamic field statistics
(PID.TID 0000.0001) // =======================================================
(PID.TID 0000.0001) // =======================================================
(PID.TID 0000.0001) // Begin OBCS MONITOR field statistics
(PID.TID 0000.0001) // =======================================================
(PID.TID 0000.0001) %MON obc_N_vVel_max               =   1.4533336949594E-05
(PID.TID 0000.0001) %MON obc_N_vVel_min               =   1.4533336949594E-05
(PID.TID 0000.0001) %MON obc_N_vVel_mean              =   1.4533336949594E-05
(PID.TID 0000.0001) %MON obc_N_vVel_sd                =  -9.9520167447786E-24
(PID.TID 0000.0001) %MON obc_N_vVel_Int               =   9.5920023867323E+02
(PID.TID 0000.0001) // =======================================================
(PID.TID 0000.0001) // End OBCS MONITOR field statistics
(PID.TID 0000.0001) // =======================================================
 cg2d: Sum(rhs),rhsMax =   4.51734844137384E+00  2.99875012628516E+02
(PID.TID 0000.0001)      cg2d_init_res =   7.51307564208415E-06
(PID.TID 0000.0001)      cg2d_iters(min,last) =      -1      75
(PID.TID 0000.0001)      cg2d_last_res =   9.56438500500744E-12
(PID.TID 0000.0001) // =======================================================
(PID.TID 0000.0001) // Begin MONITOR dynamic field statistics
(PID.TID 0000.0001) // =======================================================
(PID.TID 0000.0001) %MON time_tsnumber                =                   271
(PID.TID 0000.0001) %MON time_secondsf                =   2.7100000000000E+04
(PID.TID 0000.0001) %MON dynstat_eta_max              =   5.7987583160276E+00
(PID.TID 0000.0001) %MON dynstat_eta_min              =  -1.4195393832199E+01
(PID.TID 0000.0001) %MON dynstat_eta_mean             =  -2.5085924461192E+00
(PID.TID 0000.0001) %MON dynstat_eta_sd               =   4.9515569235433E+00
(PID.TID 0000.0001) %MON dynstat_eta_del2             =   2.0714030109385E-01
(PID.TID 0000.0001) %MON dynstat_uvel_max             =   2.3870098751502E-03
(PID.TID 0000.0001) %MON dynstat_uvel_min             =  -3.0405025117908E-03
(PID.TID 0000.0001) %MON dynstat_uvel_mean            =  -1.1914436164686E-07
(PID.TID 0000.0001) %MON dynstat_uvel_sd              =   1.0481940409377E-04
(PID.TID 0000.0001) %MON dynstat_uvel_del2            =   3.3341888248596E-07
(PID.TID 0000.0001) %MON dynstat_vvel_max             =   4.2309065036719E-03
(PID.TID 0000.0001) %MON dynstat_vvel_min             =  -3.1637226277859E-03
(PID.TID 0000.0001) %MON dynstat_vvel_mean            =   1.4849927312761E-05
(PID.TID 0000.0001) %MON dynstat_vvel_sd              =   1.3919970677402E-04
(PID.TID 0000.0001) %MON dynstat_vvel_del2            =   4.9066809336703E-07
(PID.TID 0000.0001) %MON dynstat_wvel_max             =   2.0254476983173E-04
(PID.TID 0000.0001) %MON dynstat_wvel_min             =  -2.0706896300197E-04
(PID.TID 0000.0001) %MON dynstat_wvel_mean            =   6.9551486758311E-09
(PID.TID 0000.0001) %MON dynstat_wvel_sd              =   3.6568413847009E-05
(PID.TID 0000.0001) %MON dynstat_wvel_del2            =   1.8283182632977E-07
(PID.TID 0000.0001) %MON dynstat_theta_max            =   1.2000000000000E+00
(PID.TID 0000.0001) %MON dynstat_theta_min            =  -1.0000000000000E+00
(PID.TID 0000.0001) %MON dynstat_theta_mean           =   5.6908827334109E-01
(PID.TID 0000.0001) %MON dynstat_theta_sd             =   8.6857580377170E-01
(PID.TID 0000.0001) %MON dynstat_theta_del2           =   1.3552144937700E-06
(PID.TID 0000.0001) %MON dynstat_salt_max             =   3.4700000000000E+01
(PID.TID 0000.0001) %MON dynstat_salt_min             =   3.4000000000000E+01
(PID.TID 0000.0001) %MON dynstat_salt_mean            =   3.4499249453330E+01
(PID.TID 0000.0001) %MON dynstat_salt_sd              =   2.7636348481506E-01
(PID.TID 0000.0001) %MON dynstat_salt_del2            =   4.4183699809814E-07
(PID.TID 0000.0001) %MON advcfl_uvel_max              =   3.0405025117908E-04
(PID.TID 0000.0001) %MON advcfl_vvel_max              =   4.2309065036719E-04
(PID.TID 0000.0001) %MON advcfl_wvel_max              =   1.0353448150099E-03
(PID.TID 0000.0001) %MON advcfl_W_hf_max              =   1.0353448150099E-03
(PID.TID 0000.0001) %MON pe_b_mean                    =  -8.3124177457333E-01
(PID.TID 0000.0001) %MON ke_max                       =   8.0561429766399E-06
(PID.TID 0000.0001) %MON ke_mean                      =   1.5181579862624E-08
(PID.TID 0000.0001) %MON ke_vol                       =   4.2725390440207E+12
(PID.TID 0000.0001) // =======================================================
(PID.TID 0000.0001) // End MONITOR dynamic field statistics
(PID.TID 0000.0001) // =======================================================
(PID.TID 0000.0001) // =======================================================
(PID.TID 0000.0001) // Begin OBCS MONITOR field statistics
(PID.TID 0000.0001) // =======================================================
(PID.TID 0000.0001) %MON obc_N_vVel_max               =   1.4589050058415E-05
(PID.TID 0000.0001) %MON obc_N_vVel_min               =   1.4589050058415E-05
(PID.TID 0000.0001) %MON obc_N_vVel_mean              =   1.4589050058415E-05
(PID.TID 0000.0001) %MON obc_N_vVel_sd                =  -1.8249672264451E-23
(PID.TID 0000.0001) %MON obc_N_vVel_Int               =   9.6287730385540E+02
(PID.TID 0000.0001) // =======================================================
(PID.TID 0000.0001) // End OBCS MONITOR field statistics
(PID.TID 0000.0001) // =======================================================
 cg2d: Sum(rhs),rhsMax =   4.51737260489802E+00  2.99875089342748E+02
(PID.TID 0000.0001)      cg2d_init_res =   7.50139460246995E-06
(PID.TID 0000.0001)      cg2d_iters(min,last) =      -1      75
(PID.TID 0000.0001)      cg2d_last_res =   9.62343122780436E-12
(PID.TID 0000.0001) // =======================================================
(PID.TID 0000.0001) // Begin MONITOR dynamic field statistics
(PID.TID 0000.0001) // =======================================================
(PID.TID 0000.0001) %MON time_tsnumber                =                   272
(PID.TID 0000.0001) %MON time_secondsf                =   2.7200000000000E+04
(PID.TID 0000.0001) %MON dynstat_eta_max              =   5.7987242403789E+00
(PID.TID 0000.0001) %MON dynstat_eta_min              =  -1.4195410741313E+01
(PID.TID 0000.0001) %MON dynstat_eta_mean             =  -2.5086065064598E+00
(PID.TID 0000.0001) %MON dynstat_eta_sd               =   4.9515615737412E+00
(PID.TID 0000.0001) %MON dynstat_eta_del2             =   2.0714030310611E-01
(PID.TID 0000.0001) %MON dynstat_uvel_max             =   2.3796727695267E-03
(PID.TID 0000.0001) %MON dynstat_uvel_min             =  -3.0401359586687E-03
(PID.TID 0000.0001) %MON dynstat_uvel_mean            =  -1.1906131354349E-07
(PID.TID 0000.0001) %MON dynstat_uvel_sd              =   1.0515542319001E-04
(PID.TID 0000.0001) %MON dynstat_uvel_del2            =   3.3288395956261E-07
(PID.TID 0000.0001) %MON dynstat_vvel_max             =   4.2313307057480E-03
(PID.TID 0000.0001) %MON dynstat_vvel_min             =  -3.1611253143620E-03
(PID.TID 0000.0001) %MON dynstat_vvel_mean            =   1.4915202326406E-05
(PID.TID 0000.0001) %MON dynstat_vvel_sd              =   1.3928711529041E-04
(PID.TID 0000.0001) %MON dynstat_vvel_del2            =   4.8931939245314E-07
(PID.TID 0000.0001) %MON dynstat_wvel_max             =   2.0202172572484E-04
(PID.TID 0000.0001) %MON dynstat_wvel_min             =  -2.1051918781286E-04
(PID.TID 0000.0001) %MON dynstat_wvel_mean            =   7.0366340070387E-09
(PID.TID 0000.0001) %MON dynstat_wvel_sd              =   3.6470716409235E-05
(PID.TID 0000.0001) %MON dynstat_wvel_del2            =   1.8202377446345E-07
(PID.TID 0000.0001) %MON dynstat_theta_max            =   1.2000000000000E+00
(PID.TID 0000.0001) %MON dynstat_theta_min            =  -1.0000000000000E+00
(PID.TID 0000.0001) %MON dynstat_theta_mean           =   5.6908801463049E-01
(PID.TID 0000.0001) %MON dynstat_theta_sd             =   8.6857566925008E-01
(PID.TID 0000.0001) %MON dynstat_theta_del2           =   1.3513029449367E-06
(PID.TID 0000.0001) %MON dynstat_salt_max             =   3.4700000000000E+01
(PID.TID 0000.0001) %MON dynstat_salt_min             =   3.4000000000000E+01
(PID.TID 0000.0001) %MON dynstat_salt_mean            =   3.4499249349757E+01
(PID.TID 0000.0001) %MON dynstat_salt_sd              =   2.7636343624176E-01
(PID.TID 0000.0001) %MON dynstat_salt_del2            =   4.4072671839347E-07
(PID.TID 0000.0001) %MON advcfl_uvel_max              =   3.0401359586687E-04
(PID.TID 0000.0001) %MON advcfl_vvel_max              =   4.2313307057480E-04
(PID.TID 0000.0001) %MON advcfl_wvel_max              =   1.0525959390643E-03
(PID.TID 0000.0001) %MON advcfl_W_hf_max              =   1.0525959390643E-03
(PID.TID 0000.0001) %MON pe_b_mean                    =  -8.3124585244234E-01
(PID.TID 0000.0001) %MON ke_max                       =   8.0794007614846E-06
(PID.TID 0000.0001) %MON ke_mean                      =   1.5229293762818E-08
(PID.TID 0000.0001) %MON ke_vol                       =   4.2725389608701E+12
(PID.TID 0000.0001) // =======================================================
(PID.TID 0000.0001) // End MONITOR dynamic field statistics
(PID.TID 0000.0001) // =======================================================
(PID.TID 0000.0001) // =======================================================
(PID.TID 0000.0001) // Begin OBCS MONITOR field statistics
(PID.TID 0000.0001) // =======================================================
(PID.TID 0000.0001) %MON obc_N_vVel_max               =   1.4645027376613E-05
(PID.TID 0000.0001) %MON obc_N_vVel_min               =   1.4645027376613E-05
(PID.TID 0000.0001) %MON obc_N_vVel_mean              =   1.4645027376613E-05
(PID.TID 0000.0001) %MON obc_N_vVel_sd                =  -7.6255712719732E-24
(PID.TID 0000.0001) %MON obc_N_vVel_Int               =   9.6657180685649E+02
(PID.TID 0000.0001) // =======================================================
(PID.TID 0000.0001) // End OBCS MONITOR field statistics
(PID.TID 0000.0001) // =======================================================
 cg2d: Sum(rhs),rhsMax =   4.51739688118684E+00  2.99875165821496E+02
(PID.TID 0000.0001)      cg2d_init_res =   7.48769518752113E-06
(PID.TID 0000.0001)      cg2d_iters(min,last) =      -1      75
(PID.TID 0000.0001)      cg2d_last_res =   9.67603343349981E-12
(PID.TID 0000.0001) // =======================================================
(PID.TID 0000.0001) // Begin MONITOR dynamic field statistics
(PID.TID 0000.0001) // =======================================================
(PID.TID 0000.0001) %MON time_tsnumber                =                   273
(PID.TID 0000.0001) %MON time_secondsf                =   2.7300000000000E+04
(PID.TID 0000.0001) %MON dynstat_eta_max              =   5.7986900973470E+00
(PID.TID 0000.0001) %MON dynstat_eta_min              =  -1.4195427775443E+01
(PID.TID 0000.0001) %MON dynstat_eta_mean             =  -2.5086206274582E+00
(PID.TID 0000.0001) %MON dynstat_eta_sd               =   4.9515662418394E+00
(PID.TID 0000.0001) %MON dynstat_eta_del2             =   2.0714030512190E-01
(PID.TID 0000.0001) %MON dynstat_uvel_max             =   2.3722614903310E-03
(PID.TID 0000.0001) %MON dynstat_uvel_min             =  -3.0397092740380E-03
(PID.TID 0000.0001) %MON dynstat_uvel_mean            =  -1.1891864151464E-07
(PID.TID 0000.0001) %MON dynstat_uvel_sd              =   1.0549340387305E-04
(PID.TID 0000.0001) %MON dynstat_uvel_del2            =   3.3235341129742E-07
(PID.TID 0000.0001) %MON dynstat_vvel_max             =   4.2316300254726E-03
(PID.TID 0000.0001) %MON dynstat_vvel_min             =  -3.1584434790553E-03
(PID.TID 0000.0001) %MON dynstat_vvel_mean            =   1.4977984269573E-05
(PID.TID 0000.0001) %MON dynstat_vvel_sd              =   1.3937572910708E-04
(PID.TID 0000.0001) %MON dynstat_vvel_del2            =   4.8799388375664E-07
(PID.TID 0000.0001) %MON dynstat_wvel_max             =   2.0149387634929E-04
(PID.TID 0000.0001) %MON dynstat_wvel_min             =  -2.1050353112173E-04
(PID.TID 0000.0001) %MON dynstat_wvel_mean            =   7.1035062195313E-09
(PID.TID 0000.0001) %MON dynstat_wvel_sd              =   3.6374494376922E-05
(PID.TID 0000.0001) %MON dynstat_wvel_del2            =   1.8124237331515E-07
(PID.TID 0000.0001) %MON dynstat_theta_max            =   1.2000000000000E+00
(PID.TID 0000.0001) %MON dynstat_theta_min            =  -1.0000000000000E+00
(PID.TID 0000.0001) %MON dynstat_theta_mean           =   5.6908775591114E-01
(PID.TID 0000.0001) %MON dynstat_theta_sd             =   8.6857553462539E-01
(PID.TID 0000.0001) %MON dynstat_theta_del2           =   1.3473884831463E-06
(PID.TID 0000.0001) %MON dynstat_salt_max             =   3.4700000000000E+01
(PID.TID 0000.0001) %MON dynstat_salt_min             =   3.4000000000000E+01
(PID.TID 0000.0001) %MON dynstat_salt_mean            =   3.4499249246179E+01
(PID.TID 0000.0001) %MON dynstat_salt_sd              =   2.7636338763436E-01
(PID.TID 0000.0001) %MON dynstat_salt_del2            =   4.3961616198433E-07
(PID.TID 0000.0001) %MON advcfl_uvel_max              =   3.0397092740380E-04
(PID.TID 0000.0001) %MON advcfl_vvel_max              =   4.2316300254726E-04
(PID.TID 0000.0001) %MON advcfl_wvel_max              =   1.0525176556087E-03
(PID.TID 0000.0001) %MON advcfl_W_hf_max              =   1.0525176556087E-03
(PID.TID 0000.0001) %MON pe_b_mean                    =  -8.3124994584236E-01
(PID.TID 0000.0001) %MON ke_max                       =   8.1023456290447E-06
(PID.TID 0000.0001) %MON ke_mean                      =   1.5277463797986E-08
(PID.TID 0000.0001) %MON ke_vol                       =   4.2725388773516E+12
(PID.TID 0000.0001) // =======================================================
(PID.TID 0000.0001) // End MONITOR dynamic field statistics
(PID.TID 0000.0001) // =======================================================
(PID.TID 0000.0001) // =======================================================
(PID.TID 0000.0001) // Begin OBCS MONITOR field statistics
(PID.TID 0000.0001) // =======================================================
(PID.TID 0000.0001) %MON obc_N_vVel_max               =   1.4699876994490E-05
(PID.TID 0000.0001) %MON obc_N_vVel_min               =   1.4699876994490E-05
(PID.TID 0000.0001) %MON obc_N_vVel_mean              =   1.4699876994490E-05
(PID.TID 0000.0001) %MON obc_N_vVel_sd                =   3.7944844889986E-12
(PID.TID 0000.0001) %MON obc_N_vVel_Int               =   9.7019188163635E+02
(PID.TID 0000.0001) // =======================================================
(PID.TID 0000.0001) // End OBCS MONITOR field statistics
(PID.TID 0000.0001) // =======================================================
 cg2d: Sum(rhs),rhsMax =   4.51742126572718E+00  2.99875242045853E+02
(PID.TID 0000.0001)      cg2d_init_res =   7.47273838033698E-06
(PID.TID 0000.0001)      cg2d_iters(min,last) =      -1      75
(PID.TID 0000.0001)      cg2d_last_res =   9.69879509368341E-12
(PID.TID 0000.0001) // =======================================================
(PID.TID 0000.0001) // Begin MONITOR dynamic field statistics
(PID.TID 0000.0001) // =======================================================
(PID.TID 0000.0001) %MON time_tsnumber                =                   274
(PID.TID 0000.0001) %MON time_secondsf                =   2.7400000000000E+04
(PID.TID 0000.0001) %MON dynstat_eta_max              =   5.7986558920284E+00
(PID.TID 0000.0001) %MON dynstat_eta_min              =  -1.4195444925166E+01
(PID.TID 0000.0001) %MON dynstat_eta_mean             =  -2.5086348064500E+00
(PID.TID 0000.0001) %MON dynstat_eta_sd               =   4.9515709259038E+00
(PID.TID 0000.0001) %MON dynstat_eta_del2             =   2.0714030714092E-01
(PID.TID 0000.0001) %MON dynstat_uvel_max             =   2.3647767312163E-03
(PID.TID 0000.0001) %MON dynstat_uvel_min             =  -3.0392227474021E-03
(PID.TID 0000.0001) %MON dynstat_uvel_mean            =  -1.1872979988173E-07
(PID.TID 0000.0001) %MON dynstat_uvel_sd              =   1.0583332263368E-04
(PID.TID 0000.0001) %MON dynstat_uvel_del2            =   3.3182720321585E-07
(PID.TID 0000.0001) %MON dynstat_vvel_max             =   4.2318028949975E-03
(PID.TID 0000.0001) %MON dynstat_vvel_min             =  -3.1556797200167E-03
(PID.TID 0000.0001) %MON dynstat_vvel_mean            =   1.5036839499208E-05
(PID.TID 0000.0001) %MON dynstat_vvel_sd              =   1.3946692167339E-04
(PID.TID 0000.0001) %MON dynstat_vvel_del2            =   4.8672143830892E-07
(PID.TID 0000.0001) %MON dynstat_wvel_max             =   2.0096130527975E-04
(PID.TID 0000.0001) %MON dynstat_wvel_min             =  -2.0701510134927E-04
(PID.TID 0000.0001) %MON dynstat_wvel_mean            =   7.1544590562020E-09
(PID.TID 0000.0001) %MON dynstat_wvel_sd              =   3.6282297680142E-05
(PID.TID 0000.0001) %MON dynstat_wvel_del2            =   1.8052498738666E-07
(PID.TID 0000.0001) %MON dynstat_theta_max            =   1.2000000000000E+00
(PID.TID 0000.0001) %MON dynstat_theta_min            =  -1.0000000000000E+00
(PID.TID 0000.0001) %MON dynstat_theta_mean           =   5.6908749718095E-01
(PID.TID 0000.0001) %MON dynstat_theta_sd             =   8.6857539995601E-01
(PID.TID 0000.0001) %MON dynstat_theta_del2           =   1.3434439213341E-06
(PID.TID 0000.0001) %MON dynstat_salt_max             =   3.4700000000000E+01
(PID.TID 0000.0001) %MON dynstat_salt_min             =   3.4000000000000E+01
(PID.TID 0000.0001) %MON dynstat_salt_mean            =   3.4499249142594E+01
(PID.TID 0000.0001) %MON dynstat_salt_sd              =   2.7636333901113E-01
(PID.TID 0000.0001) %MON dynstat_salt_del2            =   4.3849697234501E-07
(PID.TID 0000.0001) %MON advcfl_uvel_max              =   3.0392227474021E-04
(PID.TID 0000.0001) %MON advcfl_vvel_max              =   4.2318028949975E-04
(PID.TID 0000.0001) %MON advcfl_wvel_max              =   1.0350755067464E-03
(PID.TID 0000.0001) %MON advcfl_W_hf_max              =   1.0350755067464E-03
(PID.TID 0000.0001) %MON pe_b_mean                    =  -8.3125405371320E-01
(PID.TID 0000.0001) %MON ke_max                       =   8.1249704148826E-06
(PID.TID 0000.0001) %MON ke_mean                      =   1.5326259453432E-08
(PID.TID 0000.0001) %MON ke_vol                       =   4.2725387934729E+12
(PID.TID 0000.0001) // =======================================================
(PID.TID 0000.0001) // End MONITOR dynamic field statistics
(PID.TID 0000.0001) // =======================================================
(PID.TID 0000.0001) // =======================================================
(PID.TID 0000.0001) // Begin OBCS MONITOR field statistics
(PID.TID 0000.0001) // =======================================================
(PID.TID 0000.0001) %MON obc_N_vVel_max               =   1.4752332679235E-05
(PID.TID 0000.0001) %MON obc_N_vVel_min               =   1.4752332679234E-05
(PID.TID 0000.0001) %MON obc_N_vVel_mean              =   1.4752332679234E-05
(PID.TID 0000.0001) %MON obc_N_vVel_sd                =   2.8353415276206E-12
(PID.TID 0000.0001) %MON obc_N_vVel_Int               =   9.7365395682947E+02
(PID.TID 0000.0001) // =======================================================
(PID.TID 0000.0001) // End OBCS MONITOR field statistics
(PID.TID 0000.0001) // =======================================================
 cg2d: Sum(rhs),rhsMax =   4.51744575170010E+00  2.99875317998360E+02
(PID.TID 0000.0001)      cg2d_init_res =   7.45725398625926E-06
(PID.TID 0000.0001)      cg2d_iters(min,last) =      -1      75
(PID.TID 0000.0001)      cg2d_last_res =   9.70282936372438E-12
(PID.TID 0000.0001) // =======================================================
(PID.TID 0000.0001) // Begin MONITOR dynamic field statistics
(PID.TID 0000.0001) // =======================================================
(PID.TID 0000.0001) %MON time_tsnumber                =                   275
(PID.TID 0000.0001) %MON time_secondsf                =   2.7500000000000E+04
(PID.TID 0000.0001) %MON dynstat_eta_max              =   5.7986216299960E+00
(PID.TID 0000.0001) %MON dynstat_eta_min              =  -1.4195462178408E+01
(PID.TID 0000.0001) %MON dynstat_eta_mean             =  -2.5086490395026E+00
(PID.TID 0000.0001) %MON dynstat_eta_sd               =   4.9515756237300E+00
(PID.TID 0000.0001) %MON dynstat_eta_del2             =   2.0714030916378E-01
(PID.TID 0000.0001) %MON dynstat_uvel_max             =   2.3572191476191E-03
(PID.TID 0000.0001) %MON dynstat_uvel_min             =  -3.0386766640635E-03
(PID.TID 0000.0001) %MON dynstat_uvel_mean            =  -1.1850053975463E-07
(PID.TID 0000.0001) %MON dynstat_uvel_sd              =   1.0617515481060E-04
(PID.TID 0000.0001) %MON dynstat_uvel_del2            =   3.3130531897088E-07
(PID.TID 0000.0001) %MON dynstat_vvel_max             =   4.2318479668744E-03
(PID.TID 0000.0001) %MON dynstat_vvel_min             =  -3.1528364161604E-03
(PID.TID 0000.0001) %MON dynstat_vvel_mean            =   1.5090507634149E-05
(PID.TID 0000.0001) %MON dynstat_vvel_sd              =   1.3956174265238E-04
(PID.TID 0000.0001) %MON dynstat_vvel_del2            =   4.8552427973709E-07
(PID.TID 0000.0001) %MON dynstat_wvel_max             =   2.0042409248203E-04
(PID.TID 0000.0001) %MON dynstat_wvel_min             =  -2.0010742441612E-04
(PID.TID 0000.0001) %MON dynstat_wvel_mean            =   7.1884992836109E-09
(PID.TID 0000.0001) %MON dynstat_wvel_sd              =   3.6196088514405E-05
(PID.TID 0000.0001) %MON dynstat_wvel_del2            =   1.7989957863161E-07
(PID.TID 0000.0001) %MON dynstat_theta_max            =   1.2000000000000E+00
(PID.TID 0000.0001) %MON dynstat_theta_min            =  -1.0000000000000E+00
(PID.TID 0000.0001) %MON dynstat_theta_mean           =   5.6908723843608E-01
(PID.TID 0000.0001) %MON dynstat_theta_sd             =   8.6857526530885E-01
(PID.TID 0000.0001) %MON dynstat_theta_del2           =   1.3394512022875E-06
(PID.TID 0000.0001) %MON dynstat_salt_max             =   3.4700000000000E+01
(PID.TID 0000.0001) %MON dynstat_salt_min             =   3.4000000000000E+01
(PID.TID 0000.0001) %MON dynstat_salt_mean            =   3.4499249039001E+01
(PID.TID 0000.0001) %MON dynstat_salt_sd              =   2.7636329039346E-01
(PID.TID 0000.0001) %MON dynstat_salt_del2            =   4.3736363928459E-07
(PID.TID 0000.0001) %MON advcfl_uvel_max              =   3.0386766640635E-04
(PID.TID 0000.0001) %MON advcfl_vvel_max              =   4.2318479668744E-04
(PID.TID 0000.0001) %MON advcfl_wvel_max              =   1.0021204624102E-03
(PID.TID 0000.0001) %MON advcfl_W_hf_max              =   1.0021204624102E-03
(PID.TID 0000.0001) %MON pe_b_mean                    =  -8.3125817468038E-01
(PID.TID 0000.0001) %MON ke_max                       =   8.1472686749964E-06
(PID.TID 0000.0001) %MON ke_mean                      =   1.5375807705740E-08
(PID.TID 0000.0001) %MON ke_vol                       =   4.2725387092497E+12
(PID.TID 0000.0001) // =======================================================
(PID.TID 0000.0001) // End MONITOR dynamic field statistics
(PID.TID 0000.0001) // =======================================================
(PID.TID 0000.0001) // =======================================================
(PID.TID 0000.0001) // Begin OBCS MONITOR field statistics
(PID.TID 0000.0001) // =======================================================
(PID.TID 0000.0001) %MON obc_N_vVel_max               =   1.4801261770818E-05
(PID.TID 0000.0001) %MON obc_N_vVel_min               =   1.4801261770818E-05
(PID.TID 0000.0001) %MON obc_N_vVel_mean              =   1.4801261770818E-05
(PID.TID 0000.0001) %MON obc_N_vVel_sd                =  -2.2230478962363E-24
(PID.TID 0000.0001) %MON obc_N_vVel_Int               =   9.7688327687402E+02
(PID.TID 0000.0001) // =======================================================
(PID.TID 0000.0001) // End OBCS MONITOR field statistics
(PID.TID 0000.0001) // =======================================================
 cg2d: Sum(rhs),rhsMax =   4.51747033026935E+00  2.99875393663967E+02
(PID.TID 0000.0001)      cg2d_init_res =   7.44179151905472E-06
(PID.TID 0000.0001)      cg2d_iters(min,last) =      -1      75
(PID.TID 0000.0001)      cg2d_last_res =   9.68931251770157E-12
(PID.TID 0000.0001) // =======================================================
(PID.TID 0000.0001) // Begin MONITOR dynamic field statistics
(PID.TID 0000.0001) // =======================================================
(PID.TID 0000.0001) %MON time_tsnumber                =                   276
(PID.TID 0000.0001) %MON time_secondsf                =   2.7600000000000E+04
(PID.TID 0000.0001) %MON dynstat_eta_max              =   5.7985873173539E+00
(PID.TID 0000.0001) %MON dynstat_eta_min              =  -1.4195479520932E+01
(PID.TID 0000.0001) %MON dynstat_eta_mean             =  -2.5086633215830E+00
(PID.TID 0000.0001) %MON dynstat_eta_sd               =   4.9515803328780E+00
(PID.TID 0000.0001) %MON dynstat_eta_del2             =   2.0714031119024E-01
(PID.TID 0000.0001) %MON dynstat_uvel_max             =   2.3495893722298E-03
(PID.TID 0000.0001) %MON dynstat_uvel_min             =  -3.0380713250899E-03
(PID.TID 0000.0001) %MON dynstat_uvel_mean            =  -1.1823115381946E-07
(PID.TID 0000.0001) %MON dynstat_uvel_sd              =   1.0651887479047E-04
(PID.TID 0000.0001) %MON dynstat_uvel_del2            =   3.3078776030060E-07
(PID.TID 0000.0001) %MON dynstat_vvel_max             =   4.2317641836309E-03
(PID.TID 0000.0001) %MON dynstat_vvel_min             =  -3.1499156567696E-03
(PID.TID 0000.0001) %MON dynstat_vvel_mean            =   1.5137915482813E-05
(PID.TID 0000.0001) %MON dynstat_vvel_sd              =   1.3966078396363E-04
(PID.TID 0000.0001) %MON dynstat_vvel_del2            =   4.8441417348627E-07
(PID.TID 0000.0001) %MON dynstat_wvel_max             =   1.9988231508973E-04
(PID.TID 0000.0001) %MON dynstat_wvel_min             =  -1.8989424890463E-04
(PID.TID 0000.0001) %MON dynstat_wvel_mean            =   7.2050738935773E-09
(PID.TID 0000.0001) %MON dynstat_wvel_sd              =   3.6116993091338E-05
(PID.TID 0000.0001) %MON dynstat_wvel_del2            =   1.7938111486832E-07
(PID.TID 0000.0001) %MON dynstat_theta_max            =   1.2000000000000E+00
(PID.TID 0000.0001) %MON dynstat_theta_min            =  -1.0000000000000E+00
(PID.TID 0000.0001) %MON dynstat_theta_mean           =   5.6908697967289E-01
(PID.TID 0000.0001) %MON dynstat_theta_sd             =   8.6857513073230E-01
(PID.TID 0000.0001) %MON dynstat_theta_del2           =   1.3354043349997E-06
(PID.TID 0000.0001) %MON dynstat_salt_max             =   3.4700000000000E+01
(PID.TID 0000.0001) %MON dynstat_salt_min             =   3.4000000000000E+01
(PID.TID 0000.0001) %MON dynstat_salt_mean            =   3.4499248935400E+01
(PID.TID 0000.0001) %MON dynstat_salt_sd              =   2.7636324179646E-01
(PID.TID 0000.0001) %MON dynstat_salt_del2            =   4.3621435344191E-07
(PID.TID 0000.0001) %MON advcfl_uvel_max              =   3.0380713250899E-04
(PID.TID 0000.0001) %MON advcfl_vvel_max              =   4.2317641836309E-04
(PID.TID 0000.0001) %MON advcfl_wvel_max              =   9.9941157544867E-04
(PID.TID 0000.0001) %MON advcfl_W_hf_max              =   9.9941157544867E-04
(PID.TID 0000.0001) %MON pe_b_mean                    =  -8.3126230710651E-01
(PID.TID 0000.0001) %MON ke_max                       =   8.1692349093926E-06
(PID.TID 0000.0001) %MON ke_mean                      =   1.5426174534572E-08
(PID.TID 0000.0001) %MON ke_vol                       =   4.2725386247054E+12
(PID.TID 0000.0001) // =======================================================
(PID.TID 0000.0001) // End MONITOR dynamic field statistics
(PID.TID 0000.0001) // =======================================================
(PID.TID 0000.0001) // =======================================================
(PID.TID 0000.0001) // Begin OBCS MONITOR field statistics
(PID.TID 0000.0001) // =======================================================
(PID.TID 0000.0001) %MON obc_N_vVel_max               =   1.4845669541897E-05
(PID.TID 0000.0001) %MON obc_N_vVel_min               =   1.4845669541896E-05
(PID.TID 0000.0001) %MON obc_N_vVel_mean              =   1.4845669541896E-05
(PID.TID 0000.0001) %MON obc_N_vVel_sd                =   4.8233240330766E-13
(PID.TID 0000.0001) %MON obc_N_vVel_Int               =   9.7981418976516E+02
(PID.TID 0000.0001) // =======================================================
(PID.TID 0000.0001) // End OBCS MONITOR field statistics
(PID.TID 0000.0001) // =======================================================
 cg2d: Sum(rhs),rhsMax =   4.51749499084342E+00  2.99875469030680E+02
(PID.TID 0000.0001)      cg2d_init_res =   7.42669217740250E-06
(PID.TID 0000.0001)      cg2d_iters(min,last) =      -1      75
(PID.TID 0000.0001)      cg2d_last_res =   9.65533347335629E-12
(PID.TID 0000.0001) // =======================================================
(PID.TID 0000.0001) // Begin MONITOR dynamic field statistics
(PID.TID 0000.0001) // =======================================================
(PID.TID 0000.0001) %MON time_tsnumber                =                   277
(PID.TID 0000.0001) %MON time_secondsf                =   2.7700000000000E+04
(PID.TID 0000.0001) %MON dynstat_eta_max              =   5.7985529608589E+00
(PID.TID 0000.0001) %MON dynstat_eta_min              =  -1.4195496936876E+01
(PID.TID 0000.0001) %MON dynstat_eta_mean             =  -2.5086776467091E+00
(PID.TID 0000.0001) %MON dynstat_eta_sd               =   4.9515850507416E+00
(PID.TID 0000.0001) %MON dynstat_eta_del2             =   2.0714031322111E-01
(PID.TID 0000.0001) %MON dynstat_uvel_max             =   2.3418880407746E-03
(PID.TID 0000.0001) %MON dynstat_uvel_min             =  -3.0374070661754E-03
(PID.TID 0000.0001) %MON dynstat_uvel_mean            =  -1.1791971962287E-07
(PID.TID 0000.0001) %MON dynstat_uvel_sd              =   1.0686445653871E-04
(PID.TID 0000.0001) %MON dynstat_uvel_del2            =   3.3027454628019E-07
(PID.TID 0000.0001) %MON dynstat_vvel_max             =   4.2315508283366E-03
(PID.TID 0000.0001) %MON dynstat_vvel_min             =  -3.1469191910487E-03
(PID.TID 0000.0001) %MON dynstat_vvel_mean            =   1.5178188126068E-05
(PID.TID 0000.0001) %MON dynstat_vvel_sd              =   1.3976411008093E-04
(PID.TID 0000.0001) %MON dynstat_vvel_del2            =   4.8339107749435E-07
(PID.TID 0000.0001) %MON dynstat_wvel_max             =   1.9933604744640E-04
(PID.TID 0000.0001) %MON dynstat_wvel_min             =  -1.8233896044559E-04
(PID.TID 0000.0001) %MON dynstat_wvel_mean            =   7.2041707469959E-09
(PID.TID 0000.0001) %MON dynstat_wvel_sd              =   3.6045170208208E-05
(PID.TID 0000.0001) %MON dynstat_wvel_del2            =   1.7896981223145E-07
(PID.TID 0000.0001) %MON dynstat_theta_max            =   1.2000000000000E+00
(PID.TID 0000.0001) %MON dynstat_theta_min            =  -1.0000000000000E+00
(PID.TID 0000.0001) %MON dynstat_theta_mean           =   5.6908672088702E-01
(PID.TID 0000.0001) %MON dynstat_theta_sd             =   8.6857499616089E-01
(PID.TID 0000.0001) %MON dynstat_theta_del2           =   1.3313090037815E-06
(PID.TID 0000.0001) %MON dynstat_salt_max             =   3.4700000000000E+01
(PID.TID 0000.0001) %MON dynstat_salt_min             =   3.4000000000000E+01
(PID.TID 0000.0001) %MON dynstat_salt_mean            =   3.4499248831788E+01
(PID.TID 0000.0001) %MON dynstat_salt_sd              =   2.7636319319964E-01
(PID.TID 0000.0001) %MON dynstat_salt_del2            =   4.3505101750611E-07
(PID.TID 0000.0001) %MON advcfl_uvel_max              =   3.0374070661754E-04
(PID.TID 0000.0001) %MON advcfl_vvel_max              =   4.2315508283366E-04
(PID.TID 0000.0001) %MON advcfl_wvel_max              =   9.9668023723201E-04
(PID.TID 0000.0001) %MON advcfl_W_hf_max              =   9.9668023723201E-04
(PID.TID 0000.0001) %MON pe_b_mean                    =  -8.3126644914077E-01
(PID.TID 0000.0001) %MON ke_max                       =   8.1908647228584E-06
(PID.TID 0000.0001) %MON ke_mean                      =   1.5477355317468E-08
(PID.TID 0000.0001) %MON ke_vol                       =   4.2725385398698E+12
(PID.TID 0000.0001) // =======================================================
(PID.TID 0000.0001) // End MONITOR dynamic field statistics
(PID.TID 0000.0001) // =======================================================
(PID.TID 0000.0001) // =======================================================
(PID.TID 0000.0001) // Begin OBCS MONITOR field statistics
(PID.TID 0000.0001) // =======================================================
(PID.TID 0000.0001) %MON obc_N_vVel_max               =   1.4884704596704E-05
(PID.TID 0000.0001) %MON obc_N_vVel_min               =   1.4884704596704E-05
(PID.TID 0000.0001) %MON obc_N_vVel_mean              =   1.4884704596704E-05
(PID.TID 0000.0001) %MON obc_N_vVel_sd                =  -7.3929267246927E-24
(PID.TID 0000.0001) %MON obc_N_vVel_Int               =   9.8239050338249E+02
(PID.TID 0000.0001) // =======================================================
(PID.TID 0000.0001) // End OBCS MONITOR field statistics
(PID.TID 0000.0001) // =======================================================
 cg2d: Sum(rhs),rhsMax =   4.51751972137550E+00  2.99875544090310E+02
(PID.TID 0000.0001)      cg2d_init_res =   7.41210133758953E-06
(PID.TID 0000.0001)      cg2d_iters(min,last) =      -1      75
(PID.TID 0000.0001)      cg2d_last_res =   9.59806741655183E-12
(PID.TID 0000.0001) // =======================================================
(PID.TID 0000.0001) // Begin MONITOR dynamic field statistics
(PID.TID 0000.0001) // =======================================================
(PID.TID 0000.0001) %MON time_tsnumber                =                   278
(PID.TID 0000.0001) %MON time_secondsf                =   2.7800000000000E+04
(PID.TID 0000.0001) %MON dynstat_eta_max              =   5.7985185679519E+00
(PID.TID 0000.0001) %MON dynstat_eta_min              =  -1.4195514409293E+01
(PID.TID 0000.0001) %MON dynstat_eta_mean             =  -2.5086920081226E+00
(PID.TID 0000.0001) %MON dynstat_eta_sd               =   4.9515897746019E+00
(PID.TID 0000.0001) %MON dynstat_eta_del2             =   2.0714031525691E-01
(PID.TID 0000.0001) %MON dynstat_uvel_max             =   2.3341158128058E-03
(PID.TID 0000.0001) %MON dynstat_uvel_min             =  -3.0366842674230E-03
(PID.TID 0000.0001) %MON dynstat_uvel_mean            =  -1.1756539669318E-07
(PID.TID 0000.0001) %MON dynstat_uvel_sd              =   1.0721187438549E-04
(PID.TID 0000.0001) %MON dynstat_uvel_del2            =   3.2976571250307E-07
(PID.TID 0000.0001) %MON dynstat_vvel_max             =   4.2312075491626E-03
(PID.TID 0000.0001) %MON dynstat_vvel_min             =  -3.1438484036848E-03
(PID.TID 0000.0001) %MON dynstat_vvel_mean            =   1.5210658280084E-05
(PID.TID 0000.0001) %MON dynstat_vvel_sd              =   1.3987126153230E-04
(PID.TID 0000.0001) %MON dynstat_vvel_del2            =   4.8244341362195E-07
(PID.TID 0000.0001) %MON dynstat_wvel_max             =   1.9878536052985E-04
(PID.TID 0000.0001) %MON dynstat_wvel_min             =  -1.8039520379137E-04
(PID.TID 0000.0001) %MON dynstat_wvel_mean            =   7.1863632302862E-09
(PID.TID 0000.0001) %MON dynstat_wvel_sd              =   3.5979813267643E-05
(PID.TID 0000.0001) %MON dynstat_wvel_del2            =   1.7865145289942E-07
(PID.TID 0000.0001) %MON dynstat_theta_max            =   1.2000000000000E+00
(PID.TID 0000.0001) %MON dynstat_theta_min            =  -1.0000000000000E+00
(PID.TID 0000.0001) %MON dynstat_theta_mean           =   5.6908646207408E-01
(PID.TID 0000.0001) %MON dynstat_theta_sd             =   8.6857486155082E-01
(PID.TID 0000.0001) %MON dynstat_theta_del2           =   1.3271804169670E-06
(PID.TID 0000.0001) %MON dynstat_salt_max             =   3.4700000000000E+01
(PID.TID 0000.0001) %MON dynstat_salt_min             =   3.4000000000000E+01
(PID.TID 0000.0001) %MON dynstat_salt_mean            =   3.4499248728164E+01
(PID.TID 0000.0001) %MON dynstat_salt_sd              =   2.7636314458862E-01
(PID.TID 0000.0001) %MON dynstat_salt_del2            =   4.3387839561011E-07
(PID.TID 0000.0001) %MON advcfl_uvel_max              =   3.0366842674230E-04
(PID.TID 0000.0001) %MON advcfl_vvel_max              =   4.2312075491626E-04
(PID.TID 0000.0001) %MON advcfl_wvel_max              =   9.9392680264927E-04
(PID.TID 0000.0001) %MON advcfl_W_hf_max              =   9.9392680264927E-04
(PID.TID 0000.0001) %MON pe_b_mean                    =  -8.3127059877480E-01
(PID.TID 0000.0001) %MON ke_max                       =   8.2121549031683E-06
(PID.TID 0000.0001) %MON ke_mean                      =   1.5529275390320E-08
(PID.TID 0000.0001) %MON ke_vol                       =   4.2725384547785E+12
(PID.TID 0000.0001) // =======================================================
(PID.TID 0000.0001) // End MONITOR dynamic field statistics
(PID.TID 0000.0001) // =======================================================
(PID.TID 0000.0001) // =======================================================
(PID.TID 0000.0001) // Begin OBCS MONITOR field statistics
(PID.TID 0000.0001) // =======================================================
(PID.TID 0000.0001) %MON obc_N_vVel_max               =   1.4917666707490E-05
(PID.TID 0000.0001) %MON obc_N_vVel_min               =   1.4917666707489E-05
(PID.TID 0000.0001) %MON obc_N_vVel_mean              =   1.4917666707490E-05
(PID.TID 0000.0001) %MON obc_N_vVel_sd                =  -6.2038545941477E-24
(PID.TID 0000.0001) %MON obc_N_vVel_Int               =   9.8456600269431E+02
(PID.TID 0000.0001) // =======================================================
(PID.TID 0000.0001) // End OBCS MONITOR field statistics
(PID.TID 0000.0001) // =======================================================
 cg2d: Sum(rhs),rhsMax =   4.51754450868885E+00  2.99875618839175E+02
(PID.TID 0000.0001)      cg2d_init_res =   7.39790778637590E-06
(PID.TID 0000.0001)      cg2d_iters(min,last) =      -1      75
(PID.TID 0000.0001)      cg2d_last_res =   9.51331241418149E-12
(PID.TID 0000.0001) // =======================================================
(PID.TID 0000.0001) // Begin MONITOR dynamic field statistics
(PID.TID 0000.0001) // =======================================================
(PID.TID 0000.0001) %MON time_tsnumber                =                   279
(PID.TID 0000.0001) %MON time_secondsf                =   2.7900000000000E+04
(PID.TID 0000.0001) %MON dynstat_eta_max              =   5.7984841467240E+00
(PID.TID 0000.0001) %MON dynstat_eta_min              =  -1.4195531920646E+01
(PID.TID 0000.0001) %MON dynstat_eta_mean             =  -2.5087063984752E+00
(PID.TID 0000.0001) %MON dynstat_eta_sd               =   4.9515945016848E+00
(PID.TID 0000.0001) %MON dynstat_eta_del2             =   2.0714031729720E-01
(PID.TID 0000.0001) %MON dynstat_uvel_max             =   2.3262733810778E-03
(PID.TID 0000.0001) %MON dynstat_uvel_min             =  -3.0359033513303E-03
(PID.TID 0000.0001) %MON dynstat_uvel_mean            =  -1.1717085981645E-07
(PID.TID 0000.0001) %MON dynstat_uvel_sd              =   1.0756110371750E-04
(PID.TID 0000.0001) %MON dynstat_uvel_del2            =   3.2926130979383E-07
(PID.TID 0000.0001) %MON dynstat_vvel_max             =   4.2307343597923E-03
(PID.TID 0000.0001) %MON dynstat_vvel_min             =  -3.1407043167464E-03
(PID.TID 0000.0001) %MON dynstat_vvel_mean            =   1.5234873740312E-05
(PID.TID 0000.0001) %MON dynstat_vvel_sd              =   1.3998132911225E-04
(PID.TID 0000.0001) %MON dynstat_vvel_del2            =   4.8154989238208E-07
(PID.TID 0000.0001) %MON dynstat_wvel_max             =   1.9823032131308E-04
(PID.TID 0000.0001) %MON dynstat_wvel_min             =  -1.7686735531404E-04
(PID.TID 0000.0001) %MON dynstat_wvel_mean            =   7.1528003507674E-09
(PID.TID 0000.0001) %MON dynstat_wvel_sd              =   3.5919283110125E-05
(PID.TID 0000.0001) %MON dynstat_wvel_del2            =   1.7839970084988E-07
(PID.TID 0000.0001) %MON dynstat_theta_max            =   1.2000000000000E+00
(PID.TID 0000.0001) %MON dynstat_theta_min            =  -1.0000000000000E+00
(PID.TID 0000.0001) %MON dynstat_theta_mean           =   5.6908620323077E-01
(PID.TID 0000.0001) %MON dynstat_theta_sd             =   8.6857472693481E-01
(PID.TID 0000.0001) %MON dynstat_theta_del2           =   1.3230437475931E-06
(PID.TID 0000.0001) %MON dynstat_salt_max             =   3.4700000000000E+01
(PID.TID 0000.0001) %MON dynstat_salt_min             =   3.4000000000000E+01
(PID.TID 0000.0001) %MON dynstat_salt_mean            =   3.4499248624527E+01
(PID.TID 0000.0001) %MON dynstat_salt_sd              =   2.7636309597405E-01
(PID.TID 0000.0001) %MON dynstat_salt_del2            =   4.3270435590010E-07
(PID.TID 0000.0001) %MON advcfl_uvel_max              =   3.0359033513303E-04
(PID.TID 0000.0001) %MON advcfl_vvel_max              =   4.2307343597923E-04
(PID.TID 0000.0001) %MON advcfl_wvel_max              =   9.9115160656540E-04
(PID.TID 0000.0001) %MON advcfl_W_hf_max              =   9.9115160656540E-04
(PID.TID 0000.0001) %MON pe_b_mean                    =  -8.3127475390173E-01
(PID.TID 0000.0001) %MON ke_max                       =   8.2331034237907E-06
(PID.TID 0000.0001) %MON ke_mean                      =   1.5581800420362E-08
(PID.TID 0000.0001) %MON ke_vol                       =   4.2725383694718E+12
(PID.TID 0000.0001) // =======================================================
(PID.TID 0000.0001) // End MONITOR dynamic field statistics
(PID.TID 0000.0001) // =======================================================
(PID.TID 0000.0001) // =======================================================
(PID.TID 0000.0001) // Begin OBCS MONITOR field statistics
(PID.TID 0000.0001) // =======================================================
(PID.TID 0000.0001) %MON obc_N_vVel_max               =   1.4944016261528E-05
(PID.TID 0000.0001) %MON obc_N_vVel_min               =   1.4944016261527E-05
(PID.TID 0000.0001) %MON obc_N_vVel_mean              =   1.4944016261527E-05
(PID.TID 0000.0001) %MON obc_N_vVel_sd                =   4.4555958862169E-12
(PID.TID 0000.0001) %MON obc_N_vVel_Int               =   9.8630507326079E+02
(PID.TID 0000.0001) // =======================================================
(PID.TID 0000.0001) // End OBCS MONITOR field statistics
(PID.TID 0000.0001) // =======================================================
 cg2d: Sum(rhs),rhsMax =   4.51756933877229E+00  2.99875693278587E+02
(PID.TID 0000.0001)      cg2d_init_res =   7.38378418684019E-06
(PID.TID 0000.0001)      cg2d_iters(min,last) =      -1      75
(PID.TID 0000.0001)      cg2d_last_res =   9.40252703194550E-12
(PID.TID 0000.0001) // =======================================================
(PID.TID 0000.0001) // Begin MONITOR dynamic field statistics
(PID.TID 0000.0001) // =======================================================
(PID.TID 0000.0001) %MON time_tsnumber                =                   280
(PID.TID 0000.0001) %MON time_secondsf                =   2.8000000000000E+04
(PID.TID 0000.0001) %MON dynstat_eta_max              =   5.7984497058443E+00
(PID.TID 0000.0001) %MON dynstat_eta_min              =  -1.4195549453306E+01
(PID.TID 0000.0001) %MON dynstat_eta_mean             =  -2.5087208099971E+00
(PID.TID 0000.0001) %MON dynstat_eta_sd               =   4.9515992292439E+00
(PID.TID 0000.0001) %MON dynstat_eta_del2             =   2.0714031934189E-01
(PID.TID 0000.0001) %MON dynstat_uvel_max             =   2.3183614658500E-03
(PID.TID 0000.0001) %MON dynstat_uvel_min             =  -3.0350647708506E-03
(PID.TID 0000.0001) %MON dynstat_uvel_mean            =  -1.1674369126439E-07
(PID.TID 0000.0001) %MON dynstat_uvel_sd              =   1.0791212140860E-04
(PID.TID 0000.0001) %MON dynstat_uvel_del2            =   3.2876140327125E-07
(PID.TID 0000.0001) %MON dynstat_vvel_max             =   4.2301316177049E-03
(PID.TID 0000.0001) %MON dynstat_vvel_min             =  -3.1374876121850E-03
(PID.TID 0000.0001) %MON dynstat_vvel_mean            =   1.5250601938231E-05
(PID.TID 0000.0001) %MON dynstat_vvel_sd              =   1.4009308526589E-04
(PID.TID 0000.0001) %MON dynstat_vvel_del2            =   4.8068258322876E-07
(PID.TID 0000.0001) %MON dynstat_wvel_max             =   1.9767099244214E-04
(PID.TID 0000.0001) %MON dynstat_wvel_min             =  -1.7460223103210E-04
(PID.TID 0000.0001) %MON dynstat_wvel_mean            =   7.1051353407041E-09
(PID.TID 0000.0001) %MON dynstat_wvel_sd              =   3.5861347873525E-05
(PID.TID 0000.0001) %MON dynstat_wvel_del2            =   1.7817999402752E-07
(PID.TID 0000.0001) %MON dynstat_theta_max            =   1.2000000000000E+00
(PID.TID 0000.0001) %MON dynstat_theta_min            =  -1.0000000000000E+00
(PID.TID 0000.0001) %MON dynstat_theta_mean           =   5.6908594435224E-01
(PID.TID 0000.0001) %MON dynstat_theta_sd             =   8.6857459236377E-01
(PID.TID 0000.0001) %MON dynstat_theta_del2           =   1.3189298717157E-06
(PID.TID 0000.0001) %MON dynstat_salt_max             =   3.4700000000000E+01
(PID.TID 0000.0001) %MON dynstat_salt_min             =   3.4000000000000E+01
(PID.TID 0000.0001) %MON dynstat_salt_mean            =   3.4499248520875E+01
(PID.TID 0000.0001) %MON dynstat_salt_sd              =   2.7636304737179E-01
(PID.TID 0000.0001) %MON dynstat_salt_del2            =   4.3153849442065E-07
(PID.TID 0000.0001) %MON advcfl_uvel_max              =   3.0350647708506E-04
(PID.TID 0000.0001) %MON advcfl_vvel_max              =   4.2301316177049E-04
(PID.TID 0000.0001) %MON advcfl_wvel_max              =   9.8835496221072E-04
(PID.TID 0000.0001) %MON advcfl_W_hf_max              =   9.8835496221072E-04
(PID.TID 0000.0001) %MON pe_b_mean                    =  -8.3127891236768E-01
(PID.TID 0000.0001) %MON ke_max                       =   8.2537093789183E-06
(PID.TID 0000.0001) %MON ke_mean                      =   1.5634754728782E-08
(PID.TID 0000.0001) %MON ke_vol                       =   4.2725382839931E+12
(PID.TID 0000.0001) // =======================================================
(PID.TID 0000.0001) // End MONITOR dynamic field statistics
(PID.TID 0000.0001) // =======================================================
(PID.TID 0000.0001) // =======================================================
(PID.TID 0000.0001) // Begin OBCS MONITOR field statistics
(PID.TID 0000.0001) // =======================================================
(PID.TID 0000.0001) %MON obc_N_vVel_max               =   1.4963384743679E-05
(PID.TID 0000.0001) %MON obc_N_vVel_min               =   1.4963384743678E-05
(PID.TID 0000.0001) %MON obc_N_vVel_mean              =   1.4963384743678E-05
(PID.TID 0000.0001) %MON obc_N_vVel_sd                =   4.4700762490123E-12
(PID.TID 0000.0001) %MON obc_N_vVel_Int               =   9.8758339308276E+02
(PID.TID 0000.0001) // =======================================================
(PID.TID 0000.0001) // End OBCS MONITOR field statistics
(PID.TID 0000.0001) // =======================================================
 cg2d: Sum(rhs),rhsMax =   4.51759419717422E+00  2.99875767415212E+02
(PID.TID 0000.0001)      cg2d_init_res =   7.36928769247205E-06
(PID.TID 0000.0001)      cg2d_iters(min,last) =      -1      75
(PID.TID 0000.0001)      cg2d_last_res =   9.28034471406056E-12
(PID.TID 0000.0001) // =======================================================
(PID.TID 0000.0001) // Begin MONITOR dynamic field statistics
(PID.TID 0000.0001) // =======================================================
(PID.TID 0000.0001) %MON time_tsnumber                =                   281
(PID.TID 0000.0001) %MON time_secondsf                =   2.8100000000000E+04
(PID.TID 0000.0001) %MON dynstat_eta_max              =   5.7984152543975E+00
(PID.TID 0000.0001) %MON dynstat_eta_min              =  -1.4195566990022E+01
(PID.TID 0000.0001) %MON dynstat_eta_mean             =  -2.5087352347188E+00
(PID.TID 0000.0001) %MON dynstat_eta_sd               =   4.9516039546332E+00
(PID.TID 0000.0001) %MON dynstat_eta_del2             =   2.0714032139083E-01
(PID.TID 0000.0001) %MON dynstat_uvel_max             =   2.3103808020100E-03
(PID.TID 0000.0001) %MON dynstat_uvel_min             =  -3.0341689931479E-03
(PID.TID 0000.0001) %MON dynstat_uvel_mean            =  -1.1629635036064E-07
(PID.TID 0000.0001) %MON dynstat_uvel_sd              =   1.0826490603307E-04
(PID.TID 0000.0001) %MON dynstat_uvel_del2            =   3.2826607025161E-07
(PID.TID 0000.0001) %MON dynstat_vvel_max             =   4.2293999886027E-03
(PID.TID 0000.0001) %MON dynstat_vvel_min             =  -3.1341986674986E-03
(PID.TID 0000.0001) %MON dynstat_vvel_mean            =   1.5257830286113E-05
(PID.TID 0000.0001) %MON dynstat_vvel_sd              =   1.4020515664793E-04
(PID.TID 0000.0001) %MON dynstat_vvel_del2            =   4.7981080886233E-07
(PID.TID 0000.0001) %MON dynstat_wvel_max             =   1.9710743177777E-04
(PID.TID 0000.0001) %MON dynstat_wvel_min             =  -1.8109571207775E-04
(PID.TID 0000.0001) %MON dynstat_wvel_mean            =   7.0454116708084E-09
(PID.TID 0000.0001) %MON dynstat_wvel_sd              =   3.5803497228748E-05
(PID.TID 0000.0001) %MON dynstat_wvel_del2            =   1.7795442487134E-07
(PID.TID 0000.0001) %MON dynstat_theta_max            =   1.2000000000000E+00
(PID.TID 0000.0001) %MON dynstat_theta_min            =  -1.0000000000000E+00
(PID.TID 0000.0001) %MON dynstat_theta_mean           =   5.6908568543485E-01
(PID.TID 0000.0001) %MON dynstat_theta_sd             =   8.6857445788860E-01
(PID.TID 0000.0001) %MON dynstat_theta_del2           =   1.3148718296244E-06
(PID.TID 0000.0001) %MON dynstat_salt_max             =   3.4700000000000E+01
(PID.TID 0000.0001) %MON dynstat_salt_min             =   3.4000000000000E+01
(PID.TID 0000.0001) %MON dynstat_salt_mean            =   3.4499248417208E+01
(PID.TID 0000.0001) %MON dynstat_salt_sd              =   2.7636299879828E-01
(PID.TID 0000.0001) %MON dynstat_salt_del2            =   4.3039105012652E-07
(PID.TID 0000.0001) %MON advcfl_uvel_max              =   3.0341689931479E-04
(PID.TID 0000.0001) %MON advcfl_vvel_max              =   4.2293999886027E-04
(PID.TID 0000.0001) %MON advcfl_wvel_max              =   9.8553715888885E-04
(PID.TID 0000.0001) %MON advcfl_W_hf_max              =   9.8553715888885E-04
(PID.TID 0000.0001) %MON pe_b_mean                    =  -8.3128307203475E-01
(PID.TID 0000.0001) %MON ke_max                       =   8.2739728739000E-06
(PID.TID 0000.0001) %MON ke_mean                      =   1.5687945354163E-08
(PID.TID 0000.0001) %MON ke_vol                       =   4.2725381983886E+12
(PID.TID 0000.0001) // =======================================================
(PID.TID 0000.0001) // End MONITOR dynamic field statistics
(PID.TID 0000.0001) // =======================================================
(PID.TID 0000.0001) // =======================================================
(PID.TID 0000.0001) // Begin OBCS MONITOR field statistics
(PID.TID 0000.0001) // =======================================================
(PID.TID 0000.0001) %MON obc_N_vVel_max               =   1.4975583386388E-05
(PID.TID 0000.0001) %MON obc_N_vVel_min               =   1.4975583386387E-05
(PID.TID 0000.0001) %MON obc_N_vVel_mean              =   1.4975583386388E-05
(PID.TID 0000.0001) %MON obc_N_vVel_sd                =  -1.5871528003361E-23
(PID.TID 0000.0001) %MON obc_N_vVel_Int               =   9.8838850350159E+02
(PID.TID 0000.0001) // =======================================================
(PID.TID 0000.0001) // End OBCS MONITOR field statistics
(PID.TID 0000.0001) // =======================================================
 cg2d: Sum(rhs),rhsMax =   4.51761906933324E+00  2.99875841261314E+02
(PID.TID 0000.0001)      cg2d_init_res =   7.35394332313349E-06
(PID.TID 0000.0001)      cg2d_iters(min,last) =      -1      75
(PID.TID 0000.0001)      cg2d_last_res =   9.15616854589153E-12
(PID.TID 0000.0001) // =======================================================
(PID.TID 0000.0001) // Begin MONITOR dynamic field statistics
(PID.TID 0000.0001) // =======================================================
(PID.TID 0000.0001) %MON time_tsnumber                =                   282
(PID.TID 0000.0001) %MON time_secondsf                =   2.8200000000000E+04
(PID.TID 0000.0001) %MON dynstat_eta_max              =   5.7983808016719E+00
(PID.TID 0000.0001) %MON dynstat_eta_min              =  -1.4195584514345E+01
(PID.TID 0000.0001) %MON dynstat_eta_mean             =  -2.5087496646564E+00
(PID.TID 0000.0001) %MON dynstat_eta_sd               =   4.9516086753599E+00
(PID.TID 0000.0001) %MON dynstat_eta_del2             =   2.0714032344361E-01
(PID.TID 0000.0001) %MON dynstat_uvel_max             =   2.3023321269573E-03
(PID.TID 0000.0001) %MON dynstat_uvel_min             =  -3.0332164853366E-03
(PID.TID 0000.0001) %MON dynstat_uvel_mean            =  -1.1584505780363E-07
(PID.TID 0000.0001) %MON dynstat_uvel_sd              =   1.0861943789692E-04
(PID.TID 0000.0001) %MON dynstat_uvel_del2            =   3.2777539828161E-07
(PID.TID 0000.0001) %MON dynstat_vvel_max             =   4.2285404062685E-03
(PID.TID 0000.0001) %MON dynstat_vvel_min             =  -3.1308375971957E-03
(PID.TID 0000.0001) %MON dynstat_vvel_mean            =   1.5256760964711E-05
(PID.TID 0000.0001) %MON dynstat_vvel_sd              =   1.4031620874785E-04
(PID.TID 0000.0001) %MON dynstat_vvel_del2            =   4.7890527887468E-07
(PID.TID 0000.0001) %MON dynstat_wvel_max             =   1.9653969263462E-04
(PID.TID 0000.0001) %MON dynstat_wvel_min             =  -1.9121509651069E-04
(PID.TID 0000.0001) %MON dynstat_wvel_mean            =   6.9759437094998E-09
(PID.TID 0000.0001) %MON dynstat_wvel_sd              =   3.5743281220065E-05
(PID.TID 0000.0001) %MON dynstat_wvel_del2            =   1.7768685819869E-07
(PID.TID 0000.0001) %MON dynstat_theta_max            =   1.2000000000000E+00
(PID.TID 0000.0001) %MON dynstat_theta_min            =  -1.0000000000000E+00
(PID.TID 0000.0001) %MON dynstat_theta_mean           =   5.6908542647397E-01
(PID.TID 0000.0001) %MON dynstat_theta_sd             =   8.6857432345247E-01
(PID.TID 0000.0001) %MON dynstat_theta_del2           =   1.3108994021883E-06
(PID.TID 0000.0001) %MON dynstat_salt_max             =   3.4700000000000E+01
(PID.TID 0000.0001) %MON dynstat_salt_min             =   3.4000000000000E+01
(PID.TID 0000.0001) %MON dynstat_salt_mean            =   3.4499248313523E+01
(PID.TID 0000.0001) %MON dynstat_salt_sd              =   2.7636295023518E-01
(PID.TID 0000.0001) %MON dynstat_salt_del2            =   4.2927121964757E-07
(PID.TID 0000.0001) %MON advcfl_uvel_max              =   3.0332164853366E-04
(PID.TID 0000.0001) %MON advcfl_vvel_max              =   4.2285404062685E-04
(PID.TID 0000.0001) %MON advcfl_wvel_max              =   9.8269846317312E-04
(PID.TID 0000.0001) %MON advcfl_W_hf_max              =   9.8269846317312E-04
(PID.TID 0000.0001) %MON pe_b_mean                    =  -8.3128723082721E-01
(PID.TID 0000.0001) %MON ke_max                       =   8.2938948970379E-06
(PID.TID 0000.0001) %MON ke_mean                      =   1.5741187805347E-08
(PID.TID 0000.0001) %MON ke_vol                       =   4.2725381127058E+12
(PID.TID 0000.0001) // =======================================================
(PID.TID 0000.0001) // End MONITOR dynamic field statistics
(PID.TID 0000.0001) // =======================================================
(PID.TID 0000.0001) // =======================================================
(PID.TID 0000.0001) // Begin OBCS MONITOR field statistics
(PID.TID 0000.0001) // =======================================================
(PID.TID 0000.0001) %MON obc_N_vVel_max               =   1.4980607253491E-05
(PID.TID 0000.0001) %MON obc_N_vVel_min               =   1.4980607253490E-05
(PID.TID 0000.0001) %MON obc_N_vVel_mean              =   1.4980607253491E-05
(PID.TID 0000.0001) %MON obc_N_vVel_sd                =  -9.0472879497987E-24
(PID.TID 0000.0001) %MON obc_N_vVel_Int               =   9.8872007873039E+02
(PID.TID 0000.0001) // =======================================================
(PID.TID 0000.0001) // End OBCS MONITOR field statistics
(PID.TID 0000.0001) // =======================================================
 cg2d: Sum(rhs),rhsMax =   4.51764394095689E+00  2.99875914834825E+02
(PID.TID 0000.0001)      cg2d_init_res =   7.33733982733178E-06
(PID.TID 0000.0001)      cg2d_iters(min,last) =      -1      75
(PID.TID 0000.0001)      cg2d_last_res =   9.03133257529079E-12
(PID.TID 0000.0001) // =======================================================
(PID.TID 0000.0001) // Begin MONITOR dynamic field statistics
(PID.TID 0000.0001) // =======================================================
(PID.TID 0000.0001) %MON time_tsnumber                =                   283
(PID.TID 0000.0001) %MON time_secondsf                =   2.8300000000000E+04
(PID.TID 0000.0001) %MON dynstat_eta_max              =   5.7983463568717E+00
(PID.TID 0000.0001) %MON dynstat_eta_min              =  -1.4195602010999E+01
(PID.TID 0000.0001) %MON dynstat_eta_mean             =  -2.5087640920231E+00
(PID.TID 0000.0001) %MON dynstat_eta_sd               =   4.9516133891744E+00
(PID.TID 0000.0001) %MON dynstat_eta_del2             =   2.0714032550061E-01
(PID.TID 0000.0001) %MON dynstat_uvel_max             =   2.2942161728192E-03
(PID.TID 0000.0001) %MON dynstat_uvel_min             =  -3.0322077051785E-03
(PID.TID 0000.0001) %MON dynstat_uvel_mean            =  -1.1540786210894E-07
(PID.TID 0000.0001) %MON dynstat_uvel_sd              =   1.0897569895503E-04
(PID.TID 0000.0001) %MON dynstat_uvel_del2            =   3.2728948264589E-07
(PID.TID 0000.0001) %MON dynstat_vvel_max             =   4.2275540304733E-03
(PID.TID 0000.0001) %MON dynstat_vvel_min             =  -3.1274042949025E-03
(PID.TID 0000.0001) %MON dynstat_vvel_mean            =   1.5247799624066E-05
(PID.TID 0000.0001) %MON dynstat_vvel_sd              =   1.4042512184283E-04
(PID.TID 0000.0001) %MON dynstat_vvel_del2            =   4.7794194776356E-07
(PID.TID 0000.0001) %MON dynstat_wvel_max             =   1.9596782425433E-04
(PID.TID 0000.0001) %MON dynstat_wvel_min             =  -1.9827876936100E-04
(PID.TID 0000.0001) %MON dynstat_wvel_mean            =   6.8991887603890E-09
(PID.TID 0000.0001) %MON dynstat_wvel_sd              =   3.5678632832134E-05
(PID.TID 0000.0001) %MON dynstat_wvel_del2            =   1.7734762755240E-07
(PID.TID 0000.0001) %MON dynstat_theta_max            =   1.2000000000000E+00
(PID.TID 0000.0001) %MON dynstat_theta_min            =  -1.0000000000000E+00
(PID.TID 0000.0001) %MON dynstat_theta_mean           =   5.6908516746495E-01
(PID.TID 0000.0001) %MON dynstat_theta_sd             =   8.6857418899118E-01
(PID.TID 0000.0001) %MON dynstat_theta_del2           =   1.3070363390723E-06
(PID.TID 0000.0001) %MON dynstat_salt_max             =   3.4700000000000E+01
(PID.TID 0000.0001) %MON dynstat_salt_min             =   3.4000000000000E+01
(PID.TID 0000.0001) %MON dynstat_salt_mean            =   3.4499248209819E+01
(PID.TID 0000.0001) %MON dynstat_salt_sd              =   2.7636290166200E-01
(PID.TID 0000.0001) %MON dynstat_salt_del2            =   4.2818631436242E-07
(PID.TID 0000.0001) %MON advcfl_uvel_max              =   3.0322077051785E-04
(PID.TID 0000.0001) %MON advcfl_vvel_max              =   4.2275540304733E-04
(PID.TID 0000.0001) %MON advcfl_wvel_max              =   9.9139384680500E-04
(PID.TID 0000.0001) %MON advcfl_W_hf_max              =   9.9139384680500E-04
(PID.TID 0000.0001) %MON pe_b_mean                    =  -8.3129138678593E-01
(PID.TID 0000.0001) %MON ke_max                       =   8.3134771842876E-06
(PID.TID 0000.0001) %MON ke_mean                      =   1.5794330606557E-08
(PID.TID 0000.0001) %MON ke_vol                       =   4.2725380269919E+12
(PID.TID 0000.0001) // =======================================================
(PID.TID 0000.0001) // End MONITOR dynamic field statistics
(PID.TID 0000.0001) // =======================================================
(PID.TID 0000.0001) // =======================================================
(PID.TID 0000.0001) // Begin OBCS MONITOR field statistics
(PID.TID 0000.0001) // =======================================================
(PID.TID 0000.0001) %MON obc_N_vVel_max               =   1.4978634780095E-05
(PID.TID 0000.0001) %MON obc_N_vVel_min               =   1.4978634780094E-05
(PID.TID 0000.0001) %MON obc_N_vVel_mean              =   1.4978634780095E-05
(PID.TID 0000.0001) %MON obc_N_vVel_sd                =  -1.2743751312145E-23
(PID.TID 0000.0001) %MON obc_N_vVel_Int               =   9.8858989548626E+02
(PID.TID 0000.0001) // =======================================================
(PID.TID 0000.0001) // End OBCS MONITOR field statistics
(PID.TID 0000.0001) // =======================================================
 cg2d: Sum(rhs),rhsMax =   4.51766879838418E+00  2.99875988159100E+02
(PID.TID 0000.0001)      cg2d_init_res =   7.31922503306792E-06
(PID.TID 0000.0001)      cg2d_iters(min,last) =      -1      75
(PID.TID 0000.0001)      cg2d_last_res =   8.91308022973891E-12
(PID.TID 0000.0001) // =======================================================
(PID.TID 0000.0001) // Begin MONITOR dynamic field statistics
(PID.TID 0000.0001) // =======================================================
(PID.TID 0000.0001) %MON time_tsnumber                =                   284
(PID.TID 0000.0001) %MON time_secondsf                =   2.8400000000000E+04
(PID.TID 0000.0001) %MON dynstat_eta_max              =   5.7983119288422E+00
(PID.TID 0000.0001) %MON dynstat_eta_min              =  -1.4195619466200E+01
(PID.TID 0000.0001) %MON dynstat_eta_mean             =  -2.5087785094278E+00
(PID.TID 0000.0001) %MON dynstat_eta_sd               =   4.9516180941102E+00
(PID.TID 0000.0001) %MON dynstat_eta_del2             =   2.0714032756242E-01
(PID.TID 0000.0001) %MON dynstat_uvel_max             =   2.2860336654169E-03
(PID.TID 0000.0001) %MON dynstat_uvel_min             =  -3.0311430980134E-03
(PID.TID 0000.0001) %MON dynstat_uvel_mean            =  -1.1500244598720E-07
(PID.TID 0000.0001) %MON dynstat_uvel_sd              =   1.0933367265451E-04
(PID.TID 0000.0001) %MON dynstat_uvel_del2            =   3.2680842449024E-07
(PID.TID 0000.0001) %MON dynstat_vvel_max             =   4.2264422089016E-03
(PID.TID 0000.0001) %MON dynstat_vvel_min             =  -3.1238984719897E-03
(PID.TID 0000.0001) %MON dynstat_vvel_mean            =   1.5231538031345E-05
(PID.TID 0000.0001) %MON dynstat_vvel_sd              =   1.4053113514488E-04
(PID.TID 0000.0001) %MON dynstat_vvel_del2            =   4.7690510249879E-07
(PID.TID 0000.0001) %MON dynstat_wvel_max             =   1.9539187239278E-04
(PID.TID 0000.0001) %MON dynstat_wvel_min             =  -2.0216115566594E-04
(PID.TID 0000.0001) %MON dynstat_wvel_mean            =   6.8176408671591E-09
(PID.TID 0000.0001) %MON dynstat_wvel_sd              =   3.5608132164013E-05
(PID.TID 0000.0001) %MON dynstat_wvel_del2            =   1.7691723199617E-07
(PID.TID 0000.0001) %MON dynstat_theta_max            =   1.2000000000000E+00
(PID.TID 0000.0001) %MON dynstat_theta_min            =  -1.0000000000000E+00
(PID.TID 0000.0001) %MON dynstat_theta_mean           =   5.6908490840354E-01
(PID.TID 0000.0001) %MON dynstat_theta_sd             =   8.6857405440414E-01
(PID.TID 0000.0001) %MON dynstat_theta_del2           =   1.3032949312123E-06
(PID.TID 0000.0001) %MON dynstat_salt_max             =   3.4700000000000E+01
(PID.TID 0000.0001) %MON dynstat_salt_min             =   3.4000000000000E+01
(PID.TID 0000.0001) %MON dynstat_salt_mean            =   3.4499248106095E+01
(PID.TID 0000.0001) %MON dynstat_salt_sd              =   2.7636285304670E-01
(PID.TID 0000.0001) %MON dynstat_salt_del2            =   4.2714007899764E-07
(PID.TID 0000.0001) %MON advcfl_uvel_max              =   3.0311430980134E-04
(PID.TID 0000.0001) %MON advcfl_vvel_max              =   4.2264422089016E-04
(PID.TID 0000.0001) %MON advcfl_wvel_max              =   1.0108057783297E-03
(PID.TID 0000.0001) %MON advcfl_W_hf_max              =   1.0108057783297E-03
(PID.TID 0000.0001) %MON pe_b_mean                    =  -8.3129553811364E-01
(PID.TID 0000.0001) %MON ke_max                       =   8.3327220922198E-06
(PID.TID 0000.0001) %MON ke_mean                      =   1.5847275376552E-08
(PID.TID 0000.0001) %MON ke_vol                       =   4.2725379412934E+12
(PID.TID 0000.0001) // =======================================================
(PID.TID 0000.0001) // End MONITOR dynamic field statistics
(PID.TID 0000.0001) // =======================================================
(PID.TID 0000.0001) // =======================================================
(PID.TID 0000.0001) // Begin OBCS MONITOR field statistics
(PID.TID 0000.0001) // =======================================================
(PID.TID 0000.0001) %MON obc_N_vVel_max               =   1.4970020637322E-05
(PID.TID 0000.0001) %MON obc_N_vVel_min               =   1.4970020637322E-05
(PID.TID 0000.0001) %MON obc_N_vVel_mean              =   1.4970020637322E-05
(PID.TID 0000.0001) %MON obc_N_vVel_sd                =   1.6553053431563E-12
(PID.TID 0000.0001) %MON obc_N_vVel_Int               =   9.8802136206324E+02
(PID.TID 0000.0001) // =======================================================
(PID.TID 0000.0001) // End OBCS MONITOR field statistics
(PID.TID 0000.0001) // =======================================================
 cg2d: Sum(rhs),rhsMax =   4.51769362890585E+00  2.99876061262625E+02
(PID.TID 0000.0001)      cg2d_init_res =   7.29955252145362E-06
(PID.TID 0000.0001)      cg2d_iters(min,last) =      -1      75
(PID.TID 0000.0001)      cg2d_last_res =   8.81119999023457E-12
(PID.TID 0000.0001) // =======================================================
(PID.TID 0000.0001) // Begin MONITOR dynamic field statistics
(PID.TID 0000.0001) // =======================================================
(PID.TID 0000.0001) %MON time_tsnumber                =                   285
(PID.TID 0000.0001) %MON time_secondsf                =   2.8500000000000E+04
(PID.TID 0000.0001) %MON dynstat_eta_max              =   5.7982775258186E+00
(PID.TID 0000.0001) %MON dynstat_eta_min              =  -1.4195636867919E+01
(PID.TID 0000.0001) %MON dynstat_eta_mean             =  -2.5087929100510E+00
(PID.TID 0000.0001) %MON dynstat_eta_sd               =   4.9516227885325E+00
(PID.TID 0000.0001) %MON dynstat_eta_del2             =   2.0714032963037E-01
(PID.TID 0000.0001) %MON dynstat_uvel_max             =   2.2777853282836E-03
(PID.TID 0000.0001) %MON dynstat_uvel_min             =  -3.0300230988960E-03
(PID.TID 0000.0001) %MON dynstat_uvel_mean            =  -1.1464420221133E-07
(PID.TID 0000.0001) %MON dynstat_uvel_sd              =   1.0969334368217E-04
(PID.TID 0000.0001) %MON dynstat_uvel_del2            =   3.2633232779507E-07
(PID.TID 0000.0001) %MON dynstat_vvel_max             =   4.2252064441204E-03
(PID.TID 0000.0001) %MON dynstat_vvel_min             =  -3.1203196906739E-03
(PID.TID 0000.0001) %MON dynstat_vvel_mean            =   1.5208731538770E-05
(PID.TID 0000.0001) %MON dynstat_vvel_sd              =   1.4063394014527E-04
(PID.TID 0000.0001) %MON dynstat_vvel_del2            =   4.7578929158531E-07
(PID.TID 0000.0001) %MON dynstat_wvel_max             =   1.9481188008839E-04
(PID.TID 0000.0001) %MON dynstat_wvel_min             =  -2.0278918914576E-04
(PID.TID 0000.0001) %MON dynstat_wvel_mean            =   6.7337388955570E-09
(PID.TID 0000.0001) %MON dynstat_wvel_sd              =   3.5531179227631E-05
(PID.TID 0000.0001) %MON dynstat_wvel_del2            =   1.7638861437659E-07
(PID.TID 0000.0001) %MON dynstat_theta_max            =   1.2000000000000E+00
(PID.TID 0000.0001) %MON dynstat_theta_min            =  -1.0000000000000E+00
(PID.TID 0000.0001) %MON dynstat_theta_mean           =   5.6908464928526E-01
(PID.TID 0000.0001) %MON dynstat_theta_sd             =   8.6857391968859E-01
(PID.TID 0000.0001) %MON dynstat_theta_del2           =   1.2996746073599E-06
(PID.TID 0000.0001) %MON dynstat_salt_max             =   3.4700000000000E+01
(PID.TID 0000.0001) %MON dynstat_salt_min             =   3.4000000000000E+01
(PID.TID 0000.0001) %MON dynstat_salt_mean            =   3.4499248002348E+01
(PID.TID 0000.0001) %MON dynstat_salt_sd              =   2.7636280438824E-01
(PID.TID 0000.0001) %MON dynstat_salt_del2            =   4.2613223225297E-07
(PID.TID 0000.0001) %MON advcfl_uvel_max              =   3.0300230988960E-04
(PID.TID 0000.0001) %MON advcfl_vvel_max              =   4.2252064441204E-04
(PID.TID 0000.0001) %MON advcfl_wvel_max              =   1.0139459457288E-03
(PID.TID 0000.0001) %MON advcfl_W_hf_max              =   1.0139459457288E-03
(PID.TID 0000.0001) %MON pe_b_mean                    =  -8.3129968321241E-01
(PID.TID 0000.0001) %MON ke_max                       =   8.3516324849399E-06
(PID.TID 0000.0001) %MON ke_mean                      =   1.5899989748678E-08
(PID.TID 0000.0001) %MON ke_vol                       =   4.2725378556540E+12
(PID.TID 0000.0001) // =======================================================
(PID.TID 0000.0001) // End MONITOR dynamic field statistics
(PID.TID 0000.0001) // =======================================================
(PID.TID 0000.0001) // =======================================================
(PID.TID 0000.0001) // Begin OBCS MONITOR field statistics
(PID.TID 0000.0001) // =======================================================
(PID.TID 0000.0001) %MON obc_N_vVel_max               =   1.4955282787787E-05
(PID.TID 0000.0001) %MON obc_N_vVel_min               =   1.4955282787787E-05
(PID.TID 0000.0001) %MON obc_N_vVel_mean              =   1.4955282787787E-05
(PID.TID 0000.0001) %MON obc_N_vVel_sd                =  -3.1019272970739E-25
(PID.TID 0000.0001) %MON obc_N_vVel_Int               =   9.8704866399395E+02
(PID.TID 0000.0001) // =======================================================
(PID.TID 0000.0001) // End OBCS MONITOR field statistics
(PID.TID 0000.0001) // =======================================================
 cg2d: Sum(rhs),rhsMax =   4.51771842108524E+00  2.99876134178331E+02
(PID.TID 0000.0001)      cg2d_init_res =   7.27849889578434E-06
(PID.TID 0000.0001)      cg2d_iters(min,last) =      -1      75
(PID.TID 0000.0001)      cg2d_last_res =   8.73655515058439E-12
(PID.TID 0000.0001) // =======================================================
(PID.TID 0000.0001) // Begin MONITOR dynamic field statistics
(PID.TID 0000.0001) // =======================================================
(PID.TID 0000.0001) %MON time_tsnumber                =                   286
(PID.TID 0000.0001) %MON time_secondsf                =   2.8600000000000E+04
(PID.TID 0000.0001) %MON dynstat_eta_max              =   5.7982431551772E+00
(PID.TID 0000.0001) %MON dynstat_eta_min              =  -1.4195654206076E+01
(PID.TID 0000.0001) %MON dynstat_eta_mean             =  -2.5088072878172E+00
(PID.TID 0000.0001) %MON dynstat_eta_sd               =   4.9516274711574E+00
(PID.TID 0000.0001) %MON dynstat_eta_del2             =   2.0714033170517E-01
(PID.TID 0000.0001) %MON dynstat_uvel_max             =   2.2694718887202E-03
(PID.TID 0000.0001) %MON dynstat_uvel_min             =  -3.0288481369087E-03
(PID.TID 0000.0001) %MON dynstat_uvel_mean            =  -1.1434476225622E-07
(PID.TID 0000.0001) %MON dynstat_uvel_sd              =   1.1005469776902E-04
(PID.TID 0000.0001) %MON dynstat_uvel_del2            =   3.2586129688172E-07
(PID.TID 0000.0001) %MON dynstat_vvel_max             =   4.2238483638979E-03
(PID.TID 0000.0001) %MON dynstat_vvel_min             =  -3.1166673932965E-03
(PID.TID 0000.0001) %MON dynstat_vvel_mean            =   1.5180272602305E-05
(PID.TID 0000.0001) %MON dynstat_vvel_sd              =   1.4073371445357E-04
(PID.TID 0000.0001) %MON dynstat_vvel_del2            =   4.7459988952973E-07
(PID.TID 0000.0001) %MON dynstat_wvel_max             =   1.9422788831198E-04
(PID.TID 0000.0001) %MON dynstat_wvel_min             =  -2.0014430277709E-04
(PID.TID 0000.0001) %MON dynstat_wvel_mean            =   6.6497967143725E-09
(PID.TID 0000.0001) %MON dynstat_wvel_sd              =   3.5448057247375E-05
(PID.TID 0000.0001) %MON dynstat_wvel_del2            =   1.7576781424621E-07
(PID.TID 0000.0001) %MON dynstat_theta_max            =   1.2000000000000E+00
(PID.TID 0000.0001) %MON dynstat_theta_min            =  -1.0000000000000E+00
(PID.TID 0000.0001) %MON dynstat_theta_mean           =   5.6908439010690E-01
(PID.TID 0000.0001) %MON dynstat_theta_sd             =   8.6857378488645E-01
(PID.TID 0000.0001) %MON dynstat_theta_del2           =   1.2961622249753E-06
(PID.TID 0000.0001) %MON dynstat_salt_max             =   3.4700000000000E+01
(PID.TID 0000.0001) %MON dynstat_salt_min             =   3.4000000000000E+01
(PID.TID 0000.0001) %MON dynstat_salt_mean            =   3.4499247898579E+01
(PID.TID 0000.0001) %MON dynstat_salt_sd              =   2.7636275570001E-01
(PID.TID 0000.0001) %MON dynstat_salt_del2            =   4.2515865444560E-07
(PID.TID 0000.0001) %MON advcfl_uvel_max              =   3.0288481369087E-04
(PID.TID 0000.0001) %MON advcfl_vvel_max              =   4.2238483638979E-04
(PID.TID 0000.0001) %MON advcfl_wvel_max              =   1.0007215138854E-03
(PID.TID 0000.0001) %MON advcfl_W_hf_max              =   1.0007215138854E-03
(PID.TID 0000.0001) %MON pe_b_mean                    =  -8.3130382071861E-01
(PID.TID 0000.0001) %MON ke_max                       =   8.3702116325776E-06
(PID.TID 0000.0001) %MON ke_mean                      =   1.5952511899840E-08
(PID.TID 0000.0001) %MON ke_vol                       =   4.2725377701143E+12
(PID.TID 0000.0001) // =======================================================
(PID.TID 0000.0001) // End MONITOR dynamic field statistics
(PID.TID 0000.0001) // =======================================================
(PID.TID 0000.0001) // =======================================================
(PID.TID 0000.0001) // Begin OBCS MONITOR field statistics
(PID.TID 0000.0001) // =======================================================
(PID.TID 0000.0001) %MON obc_N_vVel_max               =   1.4935083442168E-05
(PID.TID 0000.0001) %MON obc_N_vVel_min               =   1.4935083442167E-05
(PID.TID 0000.0001) %MON obc_N_vVel_mean              =   1.4935083442168E-05
(PID.TID 0000.0001) %MON obc_N_vVel_sd                =  -2.0007431066126E-23
(PID.TID 0000.0001) %MON obc_N_vVel_Int               =   9.8571550718306E+02
(PID.TID 0000.0001) // =======================================================
(PID.TID 0000.0001) // End OBCS MONITOR field statistics
(PID.TID 0000.0001) // =======================================================
 cg2d: Sum(rhs),rhsMax =   4.51774316497957E+00  2.99876206943032E+02
(PID.TID 0000.0001)      cg2d_init_res =   7.25654279747801E-06
(PID.TID 0000.0001)      cg2d_iters(min,last) =      -1      75
(PID.TID 0000.0001)      cg2d_last_res =   8.70054779102047E-12
(PID.TID 0000.0001) // =======================================================
(PID.TID 0000.0001) // Begin MONITOR dynamic field statistics
(PID.TID 0000.0001) // =======================================================
(PID.TID 0000.0001) %MON time_tsnumber                =                   287
(PID.TID 0000.0001) %MON time_secondsf                =   2.8700000000000E+04
(PID.TID 0000.0001) %MON dynstat_eta_max              =   5.7982088232619E+00
(PID.TID 0000.0001) %MON dynstat_eta_min              =  -1.4195671472664E+01
(PID.TID 0000.0001) %MON dynstat_eta_mean             =  -2.5088216375127E+00
(PID.TID 0000.0001) %MON dynstat_eta_sd               =   4.9516321410752E+00
(PID.TID 0000.0001) %MON dynstat_eta_del2             =   2.0714033378739E-01
(PID.TID 0000.0001) %MON dynstat_uvel_max             =   2.2610940825221E-03
(PID.TID 0000.0001) %MON dynstat_uvel_min             =  -3.0276186393756E-03
(PID.TID 0000.0001) %MON dynstat_uvel_mean            =  -1.1411139249103E-07
(PID.TID 0000.0001) %MON dynstat_uvel_sd              =   1.1041772146846E-04
(PID.TID 0000.0001) %MON dynstat_uvel_del2            =   3.2539543429972E-07
(PID.TID 0000.0001) %MON dynstat_vvel_max             =   4.2223696934567E-03
(PID.TID 0000.0001) %MON dynstat_vvel_min             =  -3.1129409293706E-03
(PID.TID 0000.0001) %MON dynstat_vvel_mean            =   1.5147161317979E-05
(PID.TID 0000.0001) %MON dynstat_vvel_sd              =   1.4083108859023E-04
(PID.TID 0000.0001) %MON dynstat_vvel_del2            =   4.7335223149949E-07
(PID.TID 0000.0001) %MON dynstat_wvel_max             =   1.9363993676365E-04
(PID.TID 0000.0001) %MON dynstat_wvel_min             =  -1.9426349944104E-04
(PID.TID 0000.0001) %MON dynstat_wvel_mean            =   6.5679561960890E-09
(PID.TID 0000.0001) %MON dynstat_wvel_sd              =   3.5359877517737E-05
(PID.TID 0000.0001) %MON dynstat_wvel_del2            =   1.7507294120614E-07
(PID.TID 0000.0001) %MON dynstat_theta_max            =   1.2000000000000E+00
(PID.TID 0000.0001) %MON dynstat_theta_min            =  -1.0000000000000E+00
(PID.TID 0000.0001) %MON dynstat_theta_mean           =   5.6908413086478E-01
(PID.TID 0000.0001) %MON dynstat_theta_sd             =   8.6857365006407E-01
(PID.TID 0000.0001) %MON dynstat_theta_del2           =   1.2927364136420E-06
(PID.TID 0000.0001) %MON dynstat_salt_max             =   3.4700000000000E+01
(PID.TID 0000.0001) %MON dynstat_salt_min             =   3.4000000000000E+01
(PID.TID 0000.0001) %MON dynstat_salt_mean            =   3.4499247794784E+01
(PID.TID 0000.0001) %MON dynstat_salt_sd              =   2.7636270700304E-01
(PID.TID 0000.0001) %MON dynstat_salt_del2            =   4.2421269498993E-07
(PID.TID 0000.0001) %MON advcfl_uvel_max              =   3.0276186393756E-04
(PID.TID 0000.0001) %MON advcfl_vvel_max              =   4.2223696934567E-04
(PID.TID 0000.0001) %MON advcfl_wvel_max              =   9.7131749720518E-04
(PID.TID 0000.0001) %MON advcfl_W_hf_max              =   9.7131749720518E-04
(PID.TID 0000.0001) %MON pe_b_mean                    =  -8.3130794952352E-01
(PID.TID 0000.0001) %MON ke_max                       =   8.3884631184069E-06
(PID.TID 0000.0001) %MON ke_mean                      =   1.6004945582988E-08
(PID.TID 0000.0001) %MON ke_vol                       =   4.2725376847104E+12
(PID.TID 0000.0001) // =======================================================
(PID.TID 0000.0001) // End MONITOR dynamic field statistics
(PID.TID 0000.0001) // =======================================================
(PID.TID 0000.0001) // =======================================================
(PID.TID 0000.0001) // Begin OBCS MONITOR field statistics
(PID.TID 0000.0001) // =======================================================
(PID.TID 0000.0001) %MON obc_N_vVel_max               =   1.4910204837727E-05
(PID.TID 0000.0001) %MON obc_N_vVel_min               =   1.4910204837727E-05
(PID.TID 0000.0001) %MON obc_N_vVel_mean              =   1.4910204837727E-05
(PID.TID 0000.0001) %MON obc_N_vVel_sd                =  -5.0664812518873E-24
(PID.TID 0000.0001) %MON obc_N_vVel_Int               =   9.8407351929000E+02
(PID.TID 0000.0001) // =======================================================
(PID.TID 0000.0001) // End OBCS MONITOR field statistics
(PID.TID 0000.0001) // =======================================================
 cg2d: Sum(rhs),rhsMax =   4.51776785234886E+00  2.99876279596631E+02
(PID.TID 0000.0001)      cg2d_init_res =   7.23439050830167E-06
(PID.TID 0000.0001)      cg2d_iters(min,last) =      -1      75
(PID.TID 0000.0001)      cg2d_last_res =   8.69616670458097E-12
(PID.TID 0000.0001) // =======================================================
(PID.TID 0000.0001) // Begin MONITOR dynamic field statistics
(PID.TID 0000.0001) // =======================================================
(PID.TID 0000.0001) %MON time_tsnumber                =                   288
(PID.TID 0000.0001) %MON time_secondsf                =   2.8800000000000E+04
(PID.TID 0000.0001) %MON dynstat_eta_max              =   5.7981745352668E+00
(PID.TID 0000.0001) %MON dynstat_eta_min              =  -1.4195688661839E+01
(PID.TID 0000.0001) %MON dynstat_eta_mean             =  -2.5088359548956E+00
(PID.TID 0000.0001) %MON dynstat_eta_sd               =   4.9516367977641E+00
(PID.TID 0000.0001) %MON dynstat_eta_del2             =   2.0714033587828E-01
(PID.TID 0000.0001) %MON dynstat_uvel_max             =   2.2526526567557E-03
(PID.TID 0000.0001) %MON dynstat_uvel_min             =  -3.0263350340363E-03
(PID.TID 0000.0001) %MON dynstat_uvel_mean            =  -1.1394701682257E-07
(PID.TID 0000.0001) %MON dynstat_uvel_sd              =   1.1078240196049E-04
(PID.TID 0000.0001) %MON dynstat_uvel_del2            =   3.2493483826223E-07
(PID.TID 0000.0001) %MON dynstat_vvel_max             =   4.2207722276970E-03
(PID.TID 0000.0001) %MON dynstat_vvel_min             =  -3.1091395820102E-03
(PID.TID 0000.0001) %MON dynstat_vvel_mean            =   1.5110474276039E-05
(PID.TID 0000.0001) %MON dynstat_vvel_sd              =   1.4092705345756E-04
(PID.TID 0000.0001) %MON dynstat_vvel_del2            =   4.7206946300141E-07
(PID.TID 0000.0001) %MON dynstat_wvel_max             =   1.9318067841623E-04
(PID.TID 0000.0001) %MON dynstat_wvel_min             =  -1.8523943449644E-04
(PID.TID 0000.0001) %MON dynstat_wvel_mean            =   6.4901566191923E-09
(PID.TID 0000.0001) %MON dynstat_wvel_sd              =   3.5268416308140E-05
(PID.TID 0000.0001) %MON dynstat_wvel_del2            =   1.7433163041648E-07
(PID.TID 0000.0001) %MON dynstat_theta_max            =   1.2000000000000E+00
(PID.TID 0000.0001) %MON dynstat_theta_min            =  -1.0000000000000E+00
(PID.TID 0000.0001) %MON dynstat_theta_mean           =   5.6908387155558E-01
(PID.TID 0000.0001) %MON dynstat_theta_sd             =   8.6857351527517E-01
(PID.TID 0000.0001) %MON dynstat_theta_del2           =   1.2893707050465E-06
(PID.TID 0000.0001) %MON dynstat_salt_max             =   3.4700000000000E+01
(PID.TID 0000.0001) %MON dynstat_salt_min             =   3.4000000000000E+01
(PID.TID 0000.0001) %MON dynstat_salt_mean            =   3.4499247690964E+01
(PID.TID 0000.0001) %MON dynstat_salt_sd              =   2.7636265831461E-01
(PID.TID 0000.0001) %MON dynstat_salt_del2            =   4.2328607156219E-07
(PID.TID 0000.0001) %MON advcfl_uvel_max              =   3.0263350340363E-04
(PID.TID 0000.0001) %MON advcfl_vvel_max              =   4.2207722276970E-04
(PID.TID 0000.0001) %MON advcfl_wvel_max              =   9.6590339208114E-04
(PID.TID 0000.0001) %MON advcfl_W_hf_max              =   9.6590339208114E-04
(PID.TID 0000.0001) %MON pe_b_mean                    =  -8.3131206879244E-01
(PID.TID 0000.0001) %MON ke_max                       =   8.4063907495167E-06
(PID.TID 0000.0001) %MON ke_mean                      =   1.6057446744412E-08
(PID.TID 0000.0001) %MON ke_vol                       =   4.2725375994732E+12
(PID.TID 0000.0001) // =======================================================
(PID.TID 0000.0001) // End MONITOR dynamic field statistics
(PID.TID 0000.0001) // =======================================================
(PID.TID 0000.0001) // =======================================================
(PID.TID 0000.0001) // Begin OBCS MONITOR field statistics
(PID.TID 0000.0001) // =======================================================
(PID.TID 0000.0001) %MON obc_N_vVel_max               =   1.4881521551555E-05
(PID.TID 0000.0001) %MON obc_N_vVel_min               =   1.4881521551555E-05
(PID.TID 0000.0001) %MON obc_N_vVel_mean              =   1.4881521551555E-05
(PID.TID 0000.0001) %MON obc_N_vVel_sd                =  -2.0421021372403E-24
(PID.TID 0000.0001) %MON obc_N_vVel_Int               =   9.8218042240266E+02
(PID.TID 0000.0001) // =======================================================
(PID.TID 0000.0001) // End OBCS MONITOR field statistics
(PID.TID 0000.0001) // =======================================================
 cg2d: Sum(rhs),rhsMax =   4.51779247679665E+00  2.99876352181189E+02
(PID.TID 0000.0001)      cg2d_init_res =   7.21287492281123E-06
(PID.TID 0000.0001)      cg2d_iters(min,last) =      -1      75
(PID.TID 0000.0001)      cg2d_last_res =   8.71386804023635E-12
(PID.TID 0000.0001) // =======================================================
(PID.TID 0000.0001) // Begin MONITOR dynamic field statistics
(PID.TID 0000.0001) // =======================================================
(PID.TID 0000.0001) %MON time_tsnumber                =                   289
(PID.TID 0000.0001) %MON time_secondsf                =   2.8900000000000E+04
(PID.TID 0000.0001) %MON dynstat_eta_max              =   5.7981402951575E+00
(PID.TID 0000.0001) %MON dynstat_eta_min              =  -1.4195705769956E+01
(PID.TID 0000.0001) %MON dynstat_eta_mean             =  -2.5088502367656E+00
(PID.TID 0000.0001) %MON dynstat_eta_sd               =   4.9516414410635E+00
(PID.TID 0000.0001) %MON dynstat_eta_del2             =   2.0714033797855E-01
(PID.TID 0000.0001) %MON dynstat_uvel_max             =   2.2441483682645E-03
(PID.TID 0000.0001) %MON dynstat_uvel_min             =  -3.0249977496357E-03
(PID.TID 0000.0001) %MON dynstat_uvel_mean            =  -1.1385076411176E-07
(PID.TID 0000.0001) %MON dynstat_uvel_sd              =   1.1114872683147E-04
(PID.TID 0000.0001) %MON dynstat_uvel_del2            =   3.2447960148678E-07
(PID.TID 0000.0001) %MON dynstat_vvel_max             =   4.2190578033754E-03
(PID.TID 0000.0001) %MON dynstat_vvel_min             =  -3.1052625958967E-03
(PID.TID 0000.0001) %MON dynstat_vvel_mean            =   1.5071332847145E-05
(PID.TID 0000.0001) %MON dynstat_vvel_sd              =   1.4102282443960E-04
(PID.TID 0000.0001) %MON dynstat_vvel_del2            =   4.7077944308368E-07
(PID.TID 0000.0001) %MON dynstat_wvel_max             =   1.9279746663854E-04
(PID.TID 0000.0001) %MON dynstat_wvel_min             =  -1.7655195764410E-04
(PID.TID 0000.0001) %MON dynstat_wvel_mean            =   6.4181157911716E-09
(PID.TID 0000.0001) %MON dynstat_wvel_sd              =   3.5175870707186E-05
(PID.TID 0000.0001) %MON dynstat_wvel_del2            =   1.7357733867770E-07
(PID.TID 0000.0001) %MON dynstat_theta_max            =   1.2000000000000E+00
(PID.TID 0000.0001) %MON dynstat_theta_min            =  -1.0000000000000E+00
(PID.TID 0000.0001) %MON dynstat_theta_mean           =   5.6908361217647E-01
(PID.TID 0000.0001) %MON dynstat_theta_sd             =   8.6857338057115E-01
(PID.TID 0000.0001) %MON dynstat_theta_del2           =   1.2860345938018E-06
(PID.TID 0000.0001) %MON dynstat_salt_max             =   3.4700000000000E+01
(PID.TID 0000.0001) %MON dynstat_salt_min             =   3.4000000000000E+01
(PID.TID 0000.0001) %MON dynstat_salt_mean            =   3.4499247587118E+01
(PID.TID 0000.0001) %MON dynstat_salt_sd              =   2.7636260965087E-01
(PID.TID 0000.0001) %MON dynstat_salt_del2            =   4.2236930389166E-07
(PID.TID 0000.0001) %MON advcfl_uvel_max              =   3.0249977496357E-04
(PID.TID 0000.0001) %MON advcfl_vvel_max              =   4.2190578033754E-04
(PID.TID 0000.0001) %MON advcfl_wvel_max              =   9.6398733319271E-04
(PID.TID 0000.0001) %MON advcfl_W_hf_max              =   9.6398733319271E-04
(PID.TID 0000.0001) %MON pe_b_mean                    =  -8.3131617797286E-01
(PID.TID 0000.0001) %MON ke_max                       =   8.4239984677877E-06
(PID.TID 0000.0001) %MON ke_mean                      =   1.6110203965484E-08
(PID.TID 0000.0001) %MON ke_vol                       =   4.2725375144279E+12
(PID.TID 0000.0001) // =======================================================
(PID.TID 0000.0001) // End MONITOR dynamic field statistics
(PID.TID 0000.0001) // =======================================================
(PID.TID 0000.0001) // =======================================================
(PID.TID 0000.0001) // Begin OBCS MONITOR field statistics
(PID.TID 0000.0001) // =======================================================
(PID.TID 0000.0001) %MON obc_N_vVel_max               =   1.4849970829288E-05
(PID.TID 0000.0001) %MON obc_N_vVel_min               =   1.4849970829288E-05
(PID.TID 0000.0001) %MON obc_N_vVel_mean              =   1.4849970829288E-05
(PID.TID 0000.0001) %MON obc_N_vVel_sd                =  -1.5793979820934E-23
(PID.TID 0000.0001) %MON obc_N_vVel_Int               =   9.8009807473303E+02
(PID.TID 0000.0001) // =======================================================
(PID.TID 0000.0001) // End OBCS MONITOR field statistics
(PID.TID 0000.0001) // =======================================================
 cg2d: Sum(rhs),rhsMax =   4.51781703385068E+00  2.99876424740067E+02
(PID.TID 0000.0001)      cg2d_init_res =   7.19290060655693E-06
(PID.TID 0000.0001)      cg2d_iters(min,last) =      -1      75
(PID.TID 0000.0001)      cg2d_last_res =   8.74726475131375E-12
(PID.TID 0000.0001) // =======================================================
(PID.TID 0000.0001) // Begin MONITOR dynamic field statistics
(PID.TID 0000.0001) // =======================================================
(PID.TID 0000.0001) %MON time_tsnumber                =                   290
(PID.TID 0000.0001) %MON time_secondsf                =   2.9000000000000E+04
(PID.TID 0000.0001) %MON dynstat_eta_max              =   5.7981061056525E+00
(PID.TID 0000.0001) %MON dynstat_eta_min              =  -1.4195722795563E+01
(PID.TID 0000.0001) %MON dynstat_eta_mean             =  -2.5088644810017E+00
(PID.TID 0000.0001) %MON dynstat_eta_sd               =   4.9516460711838E+00
(PID.TID 0000.0001) %MON dynstat_eta_del2             =   2.0714034008936E-01
(PID.TID 0000.0001) %MON dynstat_uvel_max             =   2.2355819805391E-03
(PID.TID 0000.0001) %MON dynstat_uvel_min             =  -3.0236072141960E-03
(PID.TID 0000.0001) %MON dynstat_uvel_mean            =  -1.1381889047237E-07
(PID.TID 0000.0001) %MON dynstat_uvel_sd              =   1.1151668388379E-04
(PID.TID 0000.0001) %MON dynstat_uvel_del2            =   3.2402980945030E-07
(PID.TID 0000.0001) %MON dynstat_vvel_max             =   4.2172282688959E-03
(PID.TID 0000.0001) %MON dynstat_vvel_min             =  -3.1013092058023E-03
(PID.TID 0000.0001) %MON dynstat_vvel_mean            =   1.5030871807925E-05
(PID.TID 0000.0001) %MON dynstat_vvel_sd              =   1.4111967960054E-04
(PID.TID 0000.0001) %MON dynstat_vvel_del2            =   4.6951107690638E-07
(PID.TID 0000.0001) %MON dynstat_wvel_max             =   1.9241009100760E-04
(PID.TID 0000.0001) %MON dynstat_wvel_min             =  -1.7390409464270E-04
(PID.TID 0000.0001) %MON dynstat_wvel_mean            =   6.3533242693196E-09
(PID.TID 0000.0001) %MON dynstat_wvel_sd              =   3.5084563175452E-05
(PID.TID 0000.0001) %MON dynstat_wvel_del2            =   1.7284490240587E-07
(PID.TID 0000.0001) %MON dynstat_theta_max            =   1.2000000000000E+00
(PID.TID 0000.0001) %MON dynstat_theta_min            =  -1.0000000000000E+00
(PID.TID 0000.0001) %MON dynstat_theta_mean           =   5.6908335272532E-01
(PID.TID 0000.0001) %MON dynstat_theta_sd             =   8.6857324589413E-01
(PID.TID 0000.0001) %MON dynstat_theta_del2           =   1.2826985018186E-06
(PID.TID 0000.0001) %MON dynstat_salt_max             =   3.4700000000000E+01
(PID.TID 0000.0001) %MON dynstat_salt_min             =   3.4000000000000E+01
(PID.TID 0000.0001) %MON dynstat_salt_mean            =   3.4499247483244E+01
(PID.TID 0000.0001) %MON dynstat_salt_sd              =   2.7636256099347E-01
(PID.TID 0000.0001) %MON dynstat_salt_del2            =   4.2145320551152E-07
(PID.TID 0000.0001) %MON advcfl_uvel_max              =   3.0236072141960E-04
(PID.TID 0000.0001) %MON advcfl_vvel_max              =   4.2172282688959E-04
(PID.TID 0000.0001) %MON advcfl_wvel_max              =   9.6205045503802E-04
(PID.TID 0000.0001) %MON advcfl_W_hf_max              =   9.6205045503802E-04
(PID.TID 0000.0001) %MON pe_b_mean                    =  -8.3132027679852E-01
(PID.TID 0000.0001) %MON ke_max                       =   8.4412902568514E-06
(PID.TID 0000.0001) %MON ke_mean                      =   1.6163415200454E-08
(PID.TID 0000.0001) %MON ke_vol                       =   4.2725374295936E+12
(PID.TID 0000.0001) // =======================================================
(PID.TID 0000.0001) // End MONITOR dynamic field statistics
(PID.TID 0000.0001) // =======================================================
(PID.TID 0000.0001) // =======================================================
(PID.TID 0000.0001) // Begin OBCS MONITOR field statistics
(PID.TID 0000.0001) // =======================================================
(PID.TID 0000.0001) %MON obc_N_vVel_max               =   1.4816522490683E-05
(PID.TID 0000.0001) %MON obc_N_vVel_min               =   1.4816522490682E-05
(PID.TID 0000.0001) %MON obc_N_vVel_mean              =   1.4816522490682E-05
(PID.TID 0000.0001) %MON obc_N_vVel_sd                =   4.0578398278682E-12
(PID.TID 0000.0001) %MON obc_N_vVel_Int               =   9.7789048438502E+02
(PID.TID 0000.0001) // =======================================================
(PID.TID 0000.0001) // End OBCS MONITOR field statistics
(PID.TID 0000.0001) // =======================================================
 cg2d: Sum(rhs),rhsMax =   4.51784152097333E+00  2.99876497316839E+02
(PID.TID 0000.0001)      cg2d_init_res =   7.17534560163854E-06
(PID.TID 0000.0001)      cg2d_iters(min,last) =      -1      75
(PID.TID 0000.0001)      cg2d_last_res =   8.77473535212633E-12
(PID.TID 0000.0001) // =======================================================
(PID.TID 0000.0001) // Begin MONITOR dynamic field statistics
(PID.TID 0000.0001) // =======================================================
(PID.TID 0000.0001) %MON time_tsnumber                =                   291
(PID.TID 0000.0001) %MON time_secondsf                =   2.9100000000000E+04
(PID.TID 0000.0001) %MON dynstat_eta_max              =   5.7980719682915E+00
(PID.TID 0000.0001) %MON dynstat_eta_min              =  -1.4195739739343E+01
(PID.TID 0000.0001) %MON dynstat_eta_mean             =  -2.5088786865594E+00
(PID.TID 0000.0001) %MON dynstat_eta_sd               =   4.9516506886657E+00
(PID.TID 0000.0001) %MON dynstat_eta_del2             =   2.0714034221156E-01
(PID.TID 0000.0001) %MON dynstat_uvel_max             =   2.2269542592568E-03
(PID.TID 0000.0001) %MON dynstat_uvel_min             =  -3.0221638525223E-03
(PID.TID 0000.0001) %MON dynstat_uvel_mean            =  -1.1384587353804E-07
(PID.TID 0000.0001) %MON dynstat_uvel_sd              =   1.1188626094939E-04
(PID.TID 0000.0001) %MON dynstat_uvel_del2            =   3.2358553931395E-07
(PID.TID 0000.0001) %MON dynstat_vvel_max             =   4.2152854528723E-03
(PID.TID 0000.0001) %MON dynstat_vvel_min             =  -3.0972786669281E-03
(PID.TID 0000.0001) %MON dynstat_vvel_mean            =   1.4990209321909E-05
(PID.TID 0000.0001) %MON dynstat_vvel_sd              =   1.4121879455102E-04
(PID.TID 0000.0001) %MON dynstat_vvel_del2            =   4.6829057305052E-07
(PID.TID 0000.0001) %MON dynstat_wvel_max             =   1.9201858573171E-04
(PID.TID 0000.0001) %MON dynstat_wvel_min             =  -1.6974556210239E-04
(PID.TID 0000.0001) %MON dynstat_wvel_mean            =   6.2970314864610E-09
(PID.TID 0000.0001) %MON dynstat_wvel_sd              =   3.4996635112862E-05
(PID.TID 0000.0001) %MON dynstat_wvel_del2            =   1.7216593918950E-07
(PID.TID 0000.0001) %MON dynstat_theta_max            =   1.2000000000000E+00
(PID.TID 0000.0001) %MON dynstat_theta_min            =  -1.0000000000000E+00
(PID.TID 0000.0001) %MON dynstat_theta_mean           =   5.6908309319971E-01
(PID.TID 0000.0001) %MON dynstat_theta_sd             =   8.6857311118035E-01
(PID.TID 0000.0001) %MON dynstat_theta_del2           =   1.2793368833058E-06
(PID.TID 0000.0001) %MON dynstat_salt_max             =   3.4700000000000E+01
(PID.TID 0000.0001) %MON dynstat_salt_min             =   3.4000000000000E+01
(PID.TID 0000.0001) %MON dynstat_salt_mean            =   3.4499247379341E+01
(PID.TID 0000.0001) %MON dynstat_salt_sd              =   2.7636251232205E-01
(PID.TID 0000.0001) %MON dynstat_salt_del2            =   4.2052984614529E-07
(PID.TID 0000.0001) %MON advcfl_uvel_max              =   3.0221638525223E-04
(PID.TID 0000.0001) %MON advcfl_vvel_max              =   4.2152854528723E-04
(PID.TID 0000.0001) %MON advcfl_wvel_max              =   9.6009292865853E-04
(PID.TID 0000.0001) %MON advcfl_W_hf_max              =   9.6009292865853E-04
(PID.TID 0000.0001) %MON pe_b_mean                    =  -8.3132436527916E-01
(PID.TID 0000.0001) %MON ke_max                       =   8.4582700471735E-06
(PID.TID 0000.0001) %MON ke_mean                      =   1.6217264004629E-08
(PID.TID 0000.0001) %MON ke_vol                       =   4.2725373449829E+12
(PID.TID 0000.0001) // =======================================================
(PID.TID 0000.0001) // End MONITOR dynamic field statistics
(PID.TID 0000.0001) // =======================================================
(PID.TID 0000.0001) // =======================================================
(PID.TID 0000.0001) // Begin OBCS MONITOR field statistics
(PID.TID 0000.0001) // =======================================================
(PID.TID 0000.0001) %MON obc_N_vVel_max               =   1.4782150485066E-05
(PID.TID 0000.0001) %MON obc_N_vVel_min               =   1.4782150485066E-05
(PID.TID 0000.0001) %MON obc_N_vVel_mean              =   1.4782150485066E-05
(PID.TID 0000.0001) %MON obc_N_vVel_sd                =  -2.0214226219265E-23
(PID.TID 0000.0001) %MON obc_N_vVel_Int               =   9.7562193201436E+02
(PID.TID 0000.0001) // =======================================================
(PID.TID 0000.0001) // End OBCS MONITOR field statistics
(PID.TID 0000.0001) // =======================================================
 cg2d: Sum(rhs),rhsMax =   4.51786593753430E+00  2.99876569954549E+02
(PID.TID 0000.0001)      cg2d_init_res =   7.16093817694162E-06
(PID.TID 0000.0001)      cg2d_iters(min,last) =      -1      75
(PID.TID 0000.0001)      cg2d_last_res =   8.77115045990477E-12
(PID.TID 0000.0001) // =======================================================
(PID.TID 0000.0001) // Begin MONITOR dynamic field statistics
(PID.TID 0000.0001) // =======================================================
(PID.TID 0000.0001) %MON time_tsnumber                =                   292
(PID.TID 0000.0001) %MON time_secondsf                =   2.9200000000000E+04
(PID.TID 0000.0001) %MON dynstat_eta_max              =   5.7980378835079E+00
(PID.TID 0000.0001) %MON dynstat_eta_min              =  -1.4195756604032E+01
(PID.TID 0000.0001) %MON dynstat_eta_mean             =  -2.5088928534487E+00
(PID.TID 0000.0001) %MON dynstat_eta_sd               =   4.9516552943701E+00
(PID.TID 0000.0001) %MON dynstat_eta_del2             =   2.0714034434716E-01
(PID.TID 0000.0001) %MON dynstat_uvel_max             =   2.2182659677075E-03
(PID.TID 0000.0001) %MON dynstat_uvel_min             =  -3.0206680832539E-03
(PID.TID 0000.0001) %MON dynstat_uvel_mean            =  -1.1392522301655E-07
(PID.TID 0000.0001) %MON dynstat_uvel_sd              =   1.1225744569230E-04
(PID.TID 0000.0001) %MON dynstat_uvel_del2            =   3.2314685914318E-07
(PID.TID 0000.0001) %MON dynstat_vvel_max             =   4.2132311321836E-03
(PID.TID 0000.0001) %MON dynstat_vvel_min             =  -3.0931702858377E-03
(PID.TID 0000.0001) %MON dynstat_vvel_mean            =   1.4950418911741E-05
(PID.TID 0000.0001) %MON dynstat_vvel_sd              =   1.4132109399281E-04
(PID.TID 0000.0001) %MON dynstat_vvel_del2            =   4.6713811515237E-07
(PID.TID 0000.0001) %MON dynstat_wvel_max             =   1.9162298586396E-04
(PID.TID 0000.0001) %MON dynstat_wvel_min             =  -1.6687190932995E-04
(PID.TID 0000.0001) %MON dynstat_wvel_mean            =   6.2502427086702E-09
(PID.TID 0000.0001) %MON dynstat_wvel_sd              =   3.4913769392893E-05
(PID.TID 0000.0001) %MON dynstat_wvel_del2            =   1.7156470356465E-07
(PID.TID 0000.0001) %MON dynstat_theta_max            =   1.2000000000000E+00
(PID.TID 0000.0001) %MON dynstat_theta_min            =  -1.0000000000000E+00
(PID.TID 0000.0001) %MON dynstat_theta_mean           =   5.6908283359747E-01
(PID.TID 0000.0001) %MON dynstat_theta_sd             =   8.6857297647800E-01
(PID.TID 0000.0001) %MON dynstat_theta_del2           =   1.2759320441513E-06
(PID.TID 0000.0001) %MON dynstat_salt_max             =   3.4700000000000E+01
(PID.TID 0000.0001) %MON dynstat_salt_min             =   3.4000000000000E+01
(PID.TID 0000.0001) %MON dynstat_salt_mean            =   3.4499247275409E+01
(PID.TID 0000.0001) %MON dynstat_salt_sd              =   2.7636246365174E-01
(PID.TID 0000.0001) %MON dynstat_salt_del2            =   4.1959373277906E-07
(PID.TID 0000.0001) %MON advcfl_uvel_max              =   3.0206680832539E-04
(PID.TID 0000.0001) %MON advcfl_vvel_max              =   4.2132311321836E-04
(PID.TID 0000.0001) %MON advcfl_wvel_max              =   9.5811492931978E-04
(PID.TID 0000.0001) %MON advcfl_W_hf_max              =   9.5811492931978E-04
(PID.TID 0000.0001) %MON pe_b_mean                    =  -8.3132844369090E-01
(PID.TID 0000.0001) %MON ke_max                       =   8.4749416193207E-06
(PID.TID 0000.0001) %MON ke_mean                      =   1.6271898084050E-08
(PID.TID 0000.0001) %MON ke_vol                       =   4.2725372606018E+12
(PID.TID 0000.0001) // =======================================================
(PID.TID 0000.0001) // End MONITOR dynamic field statistics
(PID.TID 0000.0001) // =======================================================
(PID.TID 0000.0001) // =======================================================
(PID.TID 0000.0001) // Begin OBCS MONITOR field statistics
(PID.TID 0000.0001) // =======================================================
(PID.TID 0000.0001) %MON obc_N_vVel_max               =   1.4747805687139E-05
(PID.TID 0000.0001) %MON obc_N_vVel_min               =   1.4747805687138E-05
(PID.TID 0000.0001) %MON obc_N_vVel_mean              =   1.4747805687139E-05
(PID.TID 0000.0001) %MON obc_N_vVel_sd                =  -1.9102702271146E-23
(PID.TID 0000.0001) %MON obc_N_vVel_Int               =   9.7335517535114E+02
(PID.TID 0000.0001) // =======================================================
(PID.TID 0000.0001) // End OBCS MONITOR field statistics
(PID.TID 0000.0001) // =======================================================
 cg2d: Sum(rhs),rhsMax =   4.51789028473123E+00  2.99876642694611E+02
(PID.TID 0000.0001)      cg2d_init_res =   7.15016438301285E-06
(PID.TID 0000.0001)      cg2d_iters(min,last) =      -1      75
(PID.TID 0000.0001)      cg2d_last_res =   8.74317921511777E-12
(PID.TID 0000.0001) // =======================================================
(PID.TID 0000.0001) // Begin MONITOR dynamic field statistics
(PID.TID 0000.0001) // =======================================================
(PID.TID 0000.0001) %MON time_tsnumber                =                   293
(PID.TID 0000.0001) %MON time_secondsf                =   2.9300000000000E+04
(PID.TID 0000.0001) %MON dynstat_eta_max              =   5.7980038507539E+00
(PID.TID 0000.0001) %MON dynstat_eta_min              =  -1.4195773394285E+01
(PID.TID 0000.0001) %MON dynstat_eta_mean             =  -2.5089069826811E+00
(PID.TID 0000.0001) %MON dynstat_eta_sd               =   4.9516598894023E+00
(PID.TID 0000.0001) %MON dynstat_eta_del2             =   2.0714034649687E-01
(PID.TID 0000.0001) %MON dynstat_uvel_max             =   2.2095178632373E-03
(PID.TID 0000.0001) %MON dynstat_uvel_min             =  -3.0191203168002E-03
(PID.TID 0000.0001) %MON dynstat_uvel_mean            =  -1.1405029242386E-07
(PID.TID 0000.0001) %MON dynstat_uvel_sd              =   1.1263022543733E-04
(PID.TID 0000.0001) %MON dynstat_uvel_del2            =   3.2271382745905E-07
(PID.TID 0000.0001) %MON dynstat_vvel_max             =   4.2110670008064E-03
(PID.TID 0000.0001) %MON dynstat_vvel_min             =  -3.0889834516339E-03
(PID.TID 0000.0001) %MON dynstat_vvel_mean            =   1.4912503990080E-05
(PID.TID 0000.0001) %MON dynstat_vvel_sd              =   1.4142714110058E-04
(PID.TID 0000.0001) %MON dynstat_vvel_del2            =   4.6606539662741E-07
(PID.TID 0000.0001) %MON dynstat_wvel_max             =   1.9122332731628E-04
(PID.TID 0000.0001) %MON dynstat_wvel_min             =  -1.7309214724389E-04
(PID.TID 0000.0001) %MON dynstat_wvel_mean            =   6.2137177107318E-09
(PID.TID 0000.0001) %MON dynstat_wvel_sd              =   3.4836979771930E-05
(PID.TID 0000.0001) %MON dynstat_wvel_del2            =   1.7105497443405E-07
(PID.TID 0000.0001) %MON dynstat_theta_max            =   1.2000000000000E+00
(PID.TID 0000.0001) %MON dynstat_theta_min            =  -1.0000000000000E+00
(PID.TID 0000.0001) %MON dynstat_theta_mean           =   5.6908257391651E-01
(PID.TID 0000.0001) %MON dynstat_theta_sd             =   8.6857284183642E-01
(PID.TID 0000.0001) %MON dynstat_theta_del2           =   1.2724765508260E-06
(PID.TID 0000.0001) %MON dynstat_salt_max             =   3.4700000000000E+01
(PID.TID 0000.0001) %MON dynstat_salt_min             =   3.4000000000000E+01
(PID.TID 0000.0001) %MON dynstat_salt_mean            =   3.4499247171446E+01
(PID.TID 0000.0001) %MON dynstat_salt_sd              =   2.7636241499824E-01
(PID.TID 0000.0001) %MON dynstat_salt_del2            =   4.1864253435709E-07
(PID.TID 0000.0001) %MON advcfl_uvel_max              =   3.0191203168002E-04
(PID.TID 0000.0001) %MON advcfl_vvel_max              =   4.2110670008064E-04
(PID.TID 0000.0001) %MON advcfl_wvel_max              =   9.5611663658138E-04
(PID.TID 0000.0001) %MON advcfl_W_hf_max              =   9.5611663658138E-04
(PID.TID 0000.0001) %MON pe_b_mean                    =  -8.3133251255491E-01
(PID.TID 0000.0001) %MON ke_max                       =   8.4913085086169E-06
(PID.TID 0000.0001) %MON ke_mean                      =   1.6327413166743E-08
(PID.TID 0000.0001) %MON ke_vol                       =   4.2725371764505E+12
(PID.TID 0000.0001) // =======================================================
(PID.TID 0000.0001) // End MONITOR dynamic field statistics
(PID.TID 0000.0001) // =======================================================
(PID.TID 0000.0001) // =======================================================
(PID.TID 0000.0001) // Begin OBCS MONITOR field statistics
(PID.TID 0000.0001) // =======================================================
(PID.TID 0000.0001) %MON obc_N_vVel_max               =   1.4714391867284E-05
(PID.TID 0000.0001) %MON obc_N_vVel_min               =   1.4714391867284E-05
(PID.TID 0000.0001) %MON obc_N_vVel_mean              =   1.4714391867284E-05
(PID.TID 0000.0001) %MON obc_N_vVel_sd                =  -3.6447645740618E-24
(PID.TID 0000.0001) %MON obc_N_vVel_Int               =   9.7114986324073E+02
(PID.TID 0000.0001) // =======================================================
(PID.TID 0000.0001) // End OBCS MONITOR field statistics
(PID.TID 0000.0001) // =======================================================
 cg2d: Sum(rhs),rhsMax =   4.51791456547243E+00  2.99876715576022E+02
(PID.TID 0000.0001)      cg2d_init_res =   7.14322424723977E-06
(PID.TID 0000.0001)      cg2d_iters(min,last) =      -1      75
(PID.TID 0000.0001)      cg2d_last_res =   8.71451253607430E-12
(PID.TID 0000.0001) // =======================================================
(PID.TID 0000.0001) // Begin MONITOR dynamic field statistics
(PID.TID 0000.0001) // =======================================================
(PID.TID 0000.0001) %MON time_tsnumber                =                   294
(PID.TID 0000.0001) %MON time_secondsf                =   2.9400000000000E+04
(PID.TID 0000.0001) %MON dynstat_eta_max              =   5.7979698685692E+00
(PID.TID 0000.0001) %MON dynstat_eta_min              =  -1.4195790116526E+01
(PID.TID 0000.0001) %MON dynstat_eta_mean             =  -2.5089210761980E+00
(PID.TID 0000.0001) %MON dynstat_eta_sd               =   4.9516644751103E+00
(PID.TID 0000.0001) %MON dynstat_eta_del2             =   2.0714034866253E-01
(PID.TID 0000.0001) %MON dynstat_uvel_max             =   2.2007106946091E-03
(PID.TID 0000.0001) %MON dynstat_uvel_min             =  -3.0175209544439E-03
(PID.TID 0000.0001) %MON dynstat_uvel_mean            =  -1.1421474526192E-07
(PID.TID 0000.0001) %MON dynstat_uvel_sd              =   1.1300458698575E-04
(PID.TID 0000.0001) %MON dynstat_uvel_del2            =   3.2228649286009E-07
(PID.TID 0000.0001) %MON dynstat_vvel_max             =   4.2087946406841E-03
(PID.TID 0000.0001) %MON dynstat_vvel_min             =  -3.0847176657351E-03
(PID.TID 0000.0001) %MON dynstat_vvel_mean            =   1.4877375566419E-05
(PID.TID 0000.0001) %MON dynstat_vvel_sd              =   1.4153707616489E-04
(PID.TID 0000.0001) %MON dynstat_vvel_del2            =   4.6507432008373E-07
(PID.TID 0000.0001) %MON dynstat_wvel_max             =   1.9081964657548E-04
(PID.TID 0000.0001) %MON dynstat_wvel_min             =  -1.8308730793596E-04
(PID.TID 0000.0001) %MON dynstat_wvel_mean            =   6.1879518870724E-09
(PID.TID 0000.0001) %MON dynstat_wvel_sd              =   3.4766492623716E-05
(PID.TID 0000.0001) %MON dynstat_wvel_del2            =   1.7063840666840E-07
(PID.TID 0000.0001) %MON dynstat_theta_max            =   1.2000000000000E+00
(PID.TID 0000.0001) %MON dynstat_theta_min            =  -1.0000000000000E+00
(PID.TID 0000.0001) %MON dynstat_theta_mean           =   5.6908231415517E-01
(PID.TID 0000.0001) %MON dynstat_theta_sd             =   8.6857270727505E-01
(PID.TID 0000.0001) %MON dynstat_theta_del2           =   1.2689733720198E-06
(PID.TID 0000.0001) %MON dynstat_salt_max             =   3.4700000000000E+01
(PID.TID 0000.0001) %MON dynstat_salt_min             =   3.4000000000000E+01
(PID.TID 0000.0001) %MON dynstat_salt_mean            =   3.4499247067453E+01
(PID.TID 0000.0001) %MON dynstat_salt_sd              =   2.7636236636737E-01
(PID.TID 0000.0001) %MON dynstat_salt_del2            =   4.1767712863744E-07
(PID.TID 0000.0001) %MON advcfl_uvel_max              =   3.0175209544439E-04
(PID.TID 0000.0001) %MON advcfl_vvel_max              =   4.2087946406841E-04
(PID.TID 0000.0001) %MON advcfl_wvel_max              =   9.5409823287740E-04
(PID.TID 0000.0001) %MON advcfl_W_hf_max              =   9.5409823287740E-04
(PID.TID 0000.0001) %MON pe_b_mean                    =  -8.3133657261586E-01
(PID.TID 0000.0001) %MON ke_max                       =   8.5073739154215E-06
(PID.TID 0000.0001) %MON ke_mean                      =   1.6383843830028E-08
(PID.TID 0000.0001) %MON ke_vol                       =   4.2725370925229E+12
(PID.TID 0000.0001) // =======================================================
(PID.TID 0000.0001) // End MONITOR dynamic field statistics
(PID.TID 0000.0001) // =======================================================
(PID.TID 0000.0001) // =======================================================
(PID.TID 0000.0001) // Begin OBCS MONITOR field statistics
(PID.TID 0000.0001) // =======================================================
(PID.TID 0000.0001) %MON obc_N_vVel_max               =   1.4682745593737E-05
(PID.TID 0000.0001) %MON obc_N_vVel_min               =   1.4682745593737E-05
(PID.TID 0000.0001) %MON obc_N_vVel_mean              =   1.4682745593737E-05
(PID.TID 0000.0001) %MON obc_N_vVel_sd                =  -4.4460957924725E-24
(PID.TID 0000.0001) %MON obc_N_vVel_Int               =   9.6906120918664E+02
(PID.TID 0000.0001) // =======================================================
(PID.TID 0000.0001) // End OBCS MONITOR field statistics
(PID.TID 0000.0001) // =======================================================
 cg2d: Sum(rhs),rhsMax =   4.51793878424117E+00  2.99876788634499E+02
(PID.TID 0000.0001)      cg2d_init_res =   7.14000201890178E-06
(PID.TID 0000.0001)      cg2d_iters(min,last) =      -1      75
(PID.TID 0000.0001)      cg2d_last_res =   8.69937281428294E-12
(PID.TID 0000.0001) // =======================================================
(PID.TID 0000.0001) // Begin MONITOR dynamic field statistics
(PID.TID 0000.0001) // =======================================================
(PID.TID 0000.0001) %MON time_tsnumber                =                   295
(PID.TID 0000.0001) %MON time_secondsf                =   2.9500000000000E+04
(PID.TID 0000.0001) %MON dynstat_eta_max              =   5.7979359347087E+00
(PID.TID 0000.0001) %MON dynstat_eta_min              =  -1.4195806778674E+01
(PID.TID 0000.0001) %MON dynstat_eta_mean             =  -2.5089351367880E+00
(PID.TID 0000.0001) %MON dynstat_eta_sd               =   4.9516690530347E+00
(PID.TID 0000.0001) %MON dynstat_eta_del2             =   2.0714035084552E-01
(PID.TID 0000.0001) %MON dynstat_uvel_max             =   2.1918452011516E-03
(PID.TID 0000.0001) %MON dynstat_uvel_min             =  -3.0158703901133E-03
(PID.TID 0000.0001) %MON dynstat_uvel_mean            =  -1.1441273709997E-07
(PID.TID 0000.0001) %MON dynstat_uvel_sd              =   1.1338051645982E-04
(PID.TID 0000.0001) %MON dynstat_uvel_del2            =   3.2186489402091E-07
(PID.TID 0000.0001) %MON dynstat_vvel_max             =   4.2064154949220E-03
(PID.TID 0000.0001) %MON dynstat_vvel_min             =  -3.0803725678794E-03
(PID.TID 0000.0001) %MON dynstat_vvel_mean            =   1.4845833230000E-05
(PID.TID 0000.0001) %MON dynstat_vvel_sd              =   1.4165061026460E-04
(PID.TID 0000.0001) %MON dynstat_vvel_del2            =   4.6415699526901E-07
(PID.TID 0000.0001) %MON dynstat_wvel_max             =   1.9041198096662E-04
(PID.TID 0000.0001) %MON dynstat_wvel_min             =  -1.9022160072028E-04
(PID.TID 0000.0001) %MON dynstat_wvel_mean            =   6.1731715651839E-09
(PID.TID 0000.0001) %MON dynstat_wvel_sd              =   3.4701733820692E-05
(PID.TID 0000.0001) %MON dynstat_wvel_del2            =   1.7030454982589E-07
(PID.TID 0000.0001) %MON dynstat_theta_max            =   1.2000000000000E+00
(PID.TID 0000.0001) %MON dynstat_theta_min            =  -1.0000000000000E+00
(PID.TID 0000.0001) %MON dynstat_theta_mean           =   5.6908205431364E-01
(PID.TID 0000.0001) %MON dynstat_theta_sd             =   8.6857257273373E-01
(PID.TID 0000.0001) %MON dynstat_theta_del2           =   1.2654348611137E-06
(PID.TID 0000.0001) %MON dynstat_salt_max             =   3.4700000000000E+01
(PID.TID 0000.0001) %MON dynstat_salt_min             =   3.4000000000000E+01
(PID.TID 0000.0001) %MON dynstat_salt_mean            =   3.4499246963428E+01
(PID.TID 0000.0001) %MON dynstat_salt_sd              =   2.7636231774042E-01
(PID.TID 0000.0001) %MON dynstat_salt_del2            =   4.1670125039987E-07
(PID.TID 0000.0001) %MON advcfl_uvel_max              =   3.0158703901133E-04
(PID.TID 0000.0001) %MON advcfl_vvel_max              =   4.2064154949220E-04
(PID.TID 0000.0001) %MON advcfl_wvel_max              =   9.5205990483312E-04
(PID.TID 0000.0001) %MON advcfl_W_hf_max              =   9.5205990483312E-04
(PID.TID 0000.0001) %MON pe_b_mean                    =  -8.3134062481712E-01
(PID.TID 0000.0001) %MON ke_max                       =   8.5231406221163E-06
(PID.TID 0000.0001) %MON ke_mean                      =   1.6441162123937E-08
(PID.TID 0000.0001) %MON ke_vol                       =   4.2725370088074E+12
(PID.TID 0000.0001) // =======================================================
(PID.TID 0000.0001) // End MONITOR dynamic field statistics
(PID.TID 0000.0001) // =======================================================
(PID.TID 0000.0001) // =======================================================
(PID.TID 0000.0001) // Begin OBCS MONITOR field statistics
(PID.TID 0000.0001) // =======================================================
(PID.TID 0000.0001) %MON obc_N_vVel_max               =   1.4653617915844E-05
(PID.TID 0000.0001) %MON obc_N_vVel_min               =   1.4653617915843E-05
(PID.TID 0000.0001) %MON obc_N_vVel_mean              =   1.4653617915843E-05
(PID.TID 0000.0001) %MON obc_N_vVel_sd                =   3.8686947680557E-12
(PID.TID 0000.0001) %MON obc_N_vVel_Int               =   9.6713878244566E+02
(PID.TID 0000.0001) // =======================================================
(PID.TID 0000.0001) // End OBCS MONITOR field statistics
(PID.TID 0000.0001) // =======================================================
 cg2d: Sum(rhs),rhsMax =   4.51796294685626E+00  2.99876861901738E+02
(PID.TID 0000.0001)      cg2d_init_res =   7.14004379579150E-06
(PID.TID 0000.0001)      cg2d_iters(min,last) =      -1      75
(PID.TID 0000.0001)      cg2d_last_res =   8.70573377512863E-12
(PID.TID 0000.0001) // =======================================================
(PID.TID 0000.0001) // Begin MONITOR dynamic field statistics
(PID.TID 0000.0001) // =======================================================
(PID.TID 0000.0001) %MON time_tsnumber                =                   296
(PID.TID 0000.0001) %MON time_secondsf                =   2.9600000000000E+04
(PID.TID 0000.0001) %MON dynstat_eta_max              =   5.7979020462612E+00
(PID.TID 0000.0001) %MON dynstat_eta_min              =  -1.4195823389919E+01
(PID.TID 0000.0001) %MON dynstat_eta_mean             =  -2.5089491679474E+00
(PID.TID 0000.0001) %MON dynstat_eta_sd               =   4.9516736248235E+00
(PID.TID 0000.0001) %MON dynstat_eta_del2             =   2.0714035304614E-01
(PID.TID 0000.0001) %MON dynstat_uvel_max             =   2.1829221120822E-03
(PID.TID 0000.0001) %MON dynstat_uvel_min             =  -3.0141690073382E-03
(PID.TID 0000.0001) %MON dynstat_uvel_mean            =  -1.1463882147503E-07
(PID.TID 0000.0001) %MON dynstat_uvel_sd              =   1.1375799913436E-04
(PID.TID 0000.0001) %MON dynstat_uvel_del2            =   3.2144905952591E-07
(PID.TID 0000.0001) %MON dynstat_vvel_max             =   4.2039308451312E-03
(PID.TID 0000.0001) %MON dynstat_vvel_min             =  -3.0759479586031E-03
(PID.TID 0000.0001) %MON dynstat_vvel_mean            =   1.4818549558347E-05
(PID.TID 0000.0001) %MON dynstat_vvel_sd              =   1.4176707494852E-04
(PID.TID 0000.0001) %MON dynstat_vvel_del2            =   4.6329702794499E-07
(PID.TID 0000.0001) %MON dynstat_wvel_max             =   1.9000036897591E-04
(PID.TID 0000.0001) %MON dynstat_wvel_min             =  -1.9437040638957E-04
(PID.TID 0000.0001) %MON dynstat_wvel_mean            =   6.1693346025597E-09
(PID.TID 0000.0001) %MON dynstat_wvel_sd              =   3.4641422332223E-05
(PID.TID 0000.0001) %MON dynstat_wvel_del2            =   1.7003252108356E-07
(PID.TID 0000.0001) %MON dynstat_theta_max            =   1.2000000000000E+00
(PID.TID 0000.0001) %MON dynstat_theta_min            =  -1.0000000000000E+00
(PID.TID 0000.0001) %MON dynstat_theta_mean           =   5.6908179439059E-01
(PID.TID 0000.0001) %MON dynstat_theta_sd             =   8.6857243811752E-01
(PID.TID 0000.0001) %MON dynstat_theta_del2           =   1.2618804486268E-06
(PID.TID 0000.0001) %MON dynstat_salt_max             =   3.4700000000000E+01
(PID.TID 0000.0001) %MON dynstat_salt_min             =   3.4000000000000E+01
(PID.TID 0000.0001) %MON dynstat_salt_mean            =   3.4499246859372E+01
(PID.TID 0000.0001) %MON dynstat_salt_sd              =   2.7636226908674E-01
(PID.TID 0000.0001) %MON dynstat_salt_del2            =   4.1572086807763E-07
(PID.TID 0000.0001) %MON advcfl_uvel_max              =   3.0141690073382E-04
(PID.TID 0000.0001) %MON advcfl_vvel_max              =   4.2039308451312E-04
(PID.TID 0000.0001) %MON advcfl_wvel_max              =   9.7185203194783E-04
(PID.TID 0000.0001) %MON advcfl_W_hf_max              =   9.7185203194783E-04
(PID.TID 0000.0001) %MON pe_b_mean                    =  -8.3134467025576E-01
(PID.TID 0000.0001) %MON ke_max                       =   8.5386109220277E-06
(PID.TID 0000.0001) %MON ke_mean                      =   1.6499284162877E-08
(PID.TID 0000.0001) %MON ke_vol                       =   4.2725369252875E+12
(PID.TID 0000.0001) // =======================================================
(PID.TID 0000.0001) // End MONITOR dynamic field statistics
(PID.TID 0000.0001) // =======================================================
(PID.TID 0000.0001) // =======================================================
(PID.TID 0000.0001) // Begin OBCS MONITOR field statistics
(PID.TID 0000.0001) // =======================================================
(PID.TID 0000.0001) %MON obc_N_vVel_max               =   1.4627659445094E-05
(PID.TID 0000.0001) %MON obc_N_vVel_min               =   1.4627659445094E-05
(PID.TID 0000.0001) %MON obc_N_vVel_mean              =   1.4627659445094E-05
(PID.TID 0000.0001) %MON obc_N_vVel_sd                =   1.2031483998110E-12
(PID.TID 0000.0001) %MON obc_N_vVel_Int               =   9.6542552337620E+02
(PID.TID 0000.0001) // =======================================================
(PID.TID 0000.0001) // End OBCS MONITOR field statistics
(PID.TID 0000.0001) // =======================================================
 cg2d: Sum(rhs),rhsMax =   4.51798706029489E+00  2.99876935404839E+02
(PID.TID 0000.0001)      cg2d_init_res =   7.14262387311120E-06
(PID.TID 0000.0001)      cg2d_iters(min,last) =      -1      75
(PID.TID 0000.0001)      cg2d_last_res =   8.73727085734014E-12
(PID.TID 0000.0001) // =======================================================
(PID.TID 0000.0001) // Begin MONITOR dynamic field statistics
(PID.TID 0000.0001) // =======================================================
(PID.TID 0000.0001) %MON time_tsnumber                =                   297
(PID.TID 0000.0001) %MON time_secondsf                =   2.9700000000000E+04
(PID.TID 0000.0001) %MON dynstat_eta_max              =   5.7978681998309E+00
(PID.TID 0000.0001) %MON dynstat_eta_min              =  -1.4195839960432E+01
(PID.TID 0000.0001) %MON dynstat_eta_mean             =  -2.5089631737777E+00
(PID.TID 0000.0001) %MON dynstat_eta_sd               =   4.9516781922235E+00
(PID.TID 0000.0001) %MON dynstat_eta_del2             =   2.0714035526479E-01
(PID.TID 0000.0001) %MON dynstat_uvel_max             =   2.1739421470848E-03
(PID.TID 0000.0001) %MON dynstat_uvel_min             =  -3.0124171794714E-03
(PID.TID 0000.0001) %MON dynstat_uvel_mean            =  -1.1488771070786E-07
(PID.TID 0000.0001) %MON dynstat_uvel_sd              =   1.1413701930836E-04
(PID.TID 0000.0001) %MON dynstat_uvel_del2            =   3.2103900778485E-07
(PID.TID 0000.0001) %MON dynstat_vvel_max             =   4.2013417933244E-03
(PID.TID 0000.0001) %MON dynstat_vvel_min             =  -3.0714438173760E-03
(PID.TID 0000.0001) %MON dynstat_vvel_mean            =   1.4796058268512E-05
(PID.TID 0000.0001) %MON dynstat_vvel_sd              =   1.4188551993476E-04
(PID.TID 0000.0001) %MON dynstat_vvel_del2            =   4.6247190148051E-07
(PID.TID 0000.0001) %MON dynstat_wvel_max             =   1.8958485000246E-04
(PID.TID 0000.0001) %MON dynstat_wvel_min             =  -1.9545720405190E-04
(PID.TID 0000.0001) %MON dynstat_wvel_mean            =   6.1761326599482E-09
(PID.TID 0000.0001) %MON dynstat_wvel_sd              =   3.4583755951768E-05
(PID.TID 0000.0001) %MON dynstat_wvel_del2            =   1.6979405826909E-07
(PID.TID 0000.0001) %MON dynstat_theta_max            =   1.2000000000000E+00
(PID.TID 0000.0001) %MON dynstat_theta_min            =  -1.0000000000000E+00
(PID.TID 0000.0001) %MON dynstat_theta_mean           =   5.6908153438566E-01
(PID.TID 0000.0001) %MON dynstat_theta_sd             =   8.6857230338127E-01
(PID.TID 0000.0001) %MON dynstat_theta_del2           =   1.2583350512907E-06
(PID.TID 0000.0001) %MON dynstat_salt_max             =   3.4700000000000E+01
(PID.TID 0000.0001) %MON dynstat_salt_min             =   3.4000000000000E+01
(PID.TID 0000.0001) %MON dynstat_salt_mean            =   3.4499246755284E+01
(PID.TID 0000.0001) %MON dynstat_salt_sd              =   2.7636222039213E-01
(PID.TID 0000.0001) %MON dynstat_salt_del2            =   4.1474360153441E-07
(PID.TID 0000.0001) %MON advcfl_uvel_max              =   3.0124171794714E-04
(PID.TID 0000.0001) %MON advcfl_vvel_max              =   4.2013417933244E-04
(PID.TID 0000.0001) %MON advcfl_wvel_max              =   9.7728602025950E-04
(PID.TID 0000.0001) %MON advcfl_W_hf_max              =   9.7728602025950E-04
(PID.TID 0000.0001) %MON pe_b_mean                    =  -8.3134871015708E-01
(PID.TID 0000.0001) %MON ke_max                       =   8.5537865621233E-06
(PID.TID 0000.0001) %MON ke_mean                      =   1.6558083606458E-08
(PID.TID 0000.0001) %MON ke_vol                       =   4.2725368419424E+12
(PID.TID 0000.0001) // =======================================================
(PID.TID 0000.0001) // End MONITOR dynamic field statistics
(PID.TID 0000.0001) // =======================================================
(PID.TID 0000.0001) // =======================================================
(PID.TID 0000.0001) // Begin OBCS MONITOR field statistics
(PID.TID 0000.0001) // =======================================================
(PID.TID 0000.0001) %MON obc_N_vVel_max               =   1.4605409168694E-05
(PID.TID 0000.0001) %MON obc_N_vVel_min               =   1.4605409168694E-05
(PID.TID 0000.0001) %MON obc_N_vVel_mean              =   1.4605409168694E-05
(PID.TID 0000.0001) %MON obc_N_vVel_sd                =  -9.9003179564940E-24
(PID.TID 0000.0001) %MON obc_N_vVel_Int               =   9.6395700513382E+02
(PID.TID 0000.0001) // =======================================================
(PID.TID 0000.0001) // End OBCS MONITOR field statistics
(PID.TID 0000.0001) // =======================================================
 cg2d: Sum(rhs),rhsMax =   4.51801113245038E+00  2.99877009165750E+02
(PID.TID 0000.0001)      cg2d_init_res =   7.14682416202704E-06
(PID.TID 0000.0001)      cg2d_iters(min,last) =      -1      75
(PID.TID 0000.0001)      cg2d_last_res =   8.79487255862166E-12
(PID.TID 0000.0001) // =======================================================
(PID.TID 0000.0001) // Begin MONITOR dynamic field statistics
(PID.TID 0000.0001) // =======================================================
(PID.TID 0000.0001) %MON time_tsnumber                =                   298
(PID.TID 0000.0001) %MON time_secondsf                =   2.9800000000000E+04
(PID.TID 0000.0001) %MON dynstat_eta_max              =   5.7978343916051E+00
(PID.TID 0000.0001) %MON dynstat_eta_min              =  -1.4195856501060E+01
(PID.TID 0000.0001) %MON dynstat_eta_mean             =  -2.5089771588459E+00
(PID.TID 0000.0001) %MON dynstat_eta_sd               =   4.9516827570321E+00
(PID.TID 0000.0001) %MON dynstat_eta_del2             =   2.0714035750234E-01
(PID.TID 0000.0001) %MON dynstat_uvel_max             =   2.1649060168620E-03
(PID.TID 0000.0001) %MON dynstat_uvel_min             =  -3.0163950124475E-03
(PID.TID 0000.0001) %MON dynstat_uvel_mean            =  -1.1515403909669E-07
(PID.TID 0000.0001) %MON dynstat_uvel_sd              =   1.1451756019716E-04
(PID.TID 0000.0001) %MON dynstat_uvel_del2            =   3.2063474712258E-07
(PID.TID 0000.0001) %MON dynstat_vvel_max             =   4.1986492501138E-03
(PID.TID 0000.0001) %MON dynstat_vvel_min             =  -3.0668603149193E-03
(PID.TID 0000.0001) %MON dynstat_vvel_mean            =   1.4778746213056E-05
(PID.TID 0000.0001) %MON dynstat_vvel_sd              =   1.4200484565002E-04
(PID.TID 0000.0001) %MON dynstat_vvel_del2            =   4.6165610483450E-07
(PID.TID 0000.0001) %MON dynstat_wvel_max             =   1.8916546419109E-04
(PID.TID 0000.0001) %MON dynstat_wvel_min             =  -1.9345555060007E-04
(PID.TID 0000.0001) %MON dynstat_wvel_mean            =   6.1930011031674E-09
(PID.TID 0000.0001) %MON dynstat_wvel_sd              =   3.4526662035489E-05
(PID.TID 0000.0001) %MON dynstat_wvel_del2            =   1.6955747443016E-07
(PID.TID 0000.0001) %MON dynstat_theta_max            =   1.2000000000000E+00
(PID.TID 0000.0001) %MON dynstat_theta_min            =  -1.0000000000000E+00
(PID.TID 0000.0001) %MON dynstat_theta_mean           =   5.6908127429857E-01
(PID.TID 0000.0001) %MON dynstat_theta_sd             =   8.6857216850260E-01
(PID.TID 0000.0001) %MON dynstat_theta_del2           =   1.2548248190662E-06
(PID.TID 0000.0001) %MON dynstat_salt_max             =   3.4700000000000E+01
(PID.TID 0000.0001) %MON dynstat_salt_min             =   3.4000000000000E+01
(PID.TID 0000.0001) %MON dynstat_salt_mean            =   3.4499246651163E+01
(PID.TID 0000.0001) %MON dynstat_salt_sd              =   2.7636217164921E-01
(PID.TID 0000.0001) %MON dynstat_salt_del2            =   4.1377746284449E-07
(PID.TID 0000.0001) %MON advcfl_uvel_max              =   3.0163950124475E-04
(PID.TID 0000.0001) %MON advcfl_vvel_max              =   4.1986492501138E-04
(PID.TID 0000.0001) %MON advcfl_wvel_max              =   9.6727775300033E-04
(PID.TID 0000.0001) %MON advcfl_W_hf_max              =   9.6727775300033E-04
(PID.TID 0000.0001) %MON pe_b_mean                    =  -8.3135274583574E-01
(PID.TID 0000.0001) %MON ke_max                       =   8.5686687053635E-06
(PID.TID 0000.0001) %MON ke_mean                      =   1.6617410203265E-08
(PID.TID 0000.0001) %MON ke_vol                       =   4.2725367587478E+12
(PID.TID 0000.0001) // =======================================================
(PID.TID 0000.0001) // End MONITOR dynamic field statistics
(PID.TID 0000.0001) // =======================================================
(PID.TID 0000.0001) // =======================================================
(PID.TID 0000.0001) // Begin OBCS MONITOR field statistics
(PID.TID 0000.0001) // =======================================================
(PID.TID 0000.0001) %MON obc_N_vVel_max               =   1.4587286524473E-05
(PID.TID 0000.0001) %MON obc_N_vVel_min               =   1.4587286524473E-05
(PID.TID 0000.0001) %MON obc_N_vVel_mean              =   1.4587286524473E-05
(PID.TID 0000.0001) %MON obc_N_vVel_sd                =  -1.0132962503775E-23
(PID.TID 0000.0001) %MON obc_N_vVel_Int               =   9.6276091061524E+02
(PID.TID 0000.0001) // =======================================================
(PID.TID 0000.0001) // End OBCS MONITOR field statistics
(PID.TID 0000.0001) // =======================================================
 cg2d: Sum(rhs),rhsMax =   4.51803517186110E+00  2.99877083201002E+02
(PID.TID 0000.0001)      cg2d_init_res =   7.15162823250128E-06
(PID.TID 0000.0001)      cg2d_iters(min,last) =      -1      75
(PID.TID 0000.0001)      cg2d_last_res =   8.87854331024579E-12
(PID.TID 0000.0001) // =======================================================
(PID.TID 0000.0001) // Begin MONITOR dynamic field statistics
(PID.TID 0000.0001) // =======================================================
(PID.TID 0000.0001) %MON time_tsnumber                =                   299
(PID.TID 0000.0001) %MON time_secondsf                =   2.9900000000000E+04
(PID.TID 0000.0001) %MON dynstat_eta_max              =   5.7978006174819E+00
(PID.TID 0000.0001) %MON dynstat_eta_min              =  -1.4195873023033E+01
(PID.TID 0000.0001) %MON dynstat_eta_mean             =  -2.5089911280319E+00
(PID.TID 0000.0001) %MON dynstat_eta_sd               =   4.9516873210072E+00
(PID.TID 0000.0001) %MON dynstat_eta_del2             =   2.0714035975820E-01
(PID.TID 0000.0001) %MON dynstat_uvel_max             =   2.1558144233573E-03
(PID.TID 0000.0001) %MON dynstat_uvel_min             =  -3.0275013742027E-03
(PID.TID 0000.0001) %MON dynstat_uvel_mean            =  -1.1543217451494E-07
(PID.TID 0000.0001) %MON dynstat_uvel_sd              =   1.1489960383646E-04
(PID.TID 0000.0001) %MON dynstat_uvel_del2            =   3.2023627630601E-07
(PID.TID 0000.0001) %MON dynstat_vvel_max             =   4.1958539283868E-03
(PID.TID 0000.0001) %MON dynstat_vvel_min             =  -3.0621978191991E-03
(PID.TID 0000.0001) %MON dynstat_vvel_mean            =   1.4766849351112E-05
(PID.TID 0000.0001) %MON dynstat_vvel_sd              =   1.4212394986698E-04
(PID.TID 0000.0001) %MON dynstat_vvel_del2            =   4.6082456386444E-07
(PID.TID 0000.0001) %MON dynstat_wvel_max             =   1.8874225248133E-04
(PID.TID 0000.0001) %MON dynstat_wvel_min             =  -1.8839023438282E-04
(PID.TID 0000.0001) %MON dynstat_wvel_mean            =   6.2191295408752E-09
(PID.TID 0000.0001) %MON dynstat_wvel_sd              =   3.4468076766736E-05
(PID.TID 0000.0001) %MON dynstat_wvel_del2            =   1.6929193111749E-07
(PID.TID 0000.0001) %MON dynstat_theta_max            =   1.2000000000000E+00
(PID.TID 0000.0001) %MON dynstat_theta_min            =  -1.0000000000000E+00
(PID.TID 0000.0001) %MON dynstat_theta_mean           =   5.6908101412732E-01
(PID.TID 0000.0001) %MON dynstat_theta_sd             =   8.6857203353767E-01
(PID.TID 0000.0001) %MON dynstat_theta_del2           =   1.2513738276740E-06
(PID.TID 0000.0001) %MON dynstat_salt_max             =   3.4700000000000E+01
(PID.TID 0000.0001) %MON dynstat_salt_min             =   3.4000000000000E+01
(PID.TID 0000.0001) %MON dynstat_salt_mean            =   3.4499246547009E+01
(PID.TID 0000.0001) %MON dynstat_salt_sd              =   2.7636212287565E-01
(PID.TID 0000.0001) %MON dynstat_salt_del2            =   4.1282981699273E-07
(PID.TID 0000.0001) %MON advcfl_uvel_max              =   3.0275013742027E-04
(PID.TID 0000.0001) %MON advcfl_vvel_max              =   4.1958539283868E-04
(PID.TID 0000.0001) %MON advcfl_wvel_max              =   9.4371126240665E-04
(PID.TID 0000.0001) %MON advcfl_W_hf_max              =   9.4371126240665E-04
(PID.TID 0000.0001) %MON pe_b_mean                    =  -8.3135677864921E-01
(PID.TID 0000.0001) %MON ke_max                       =   8.5832579113739E-06
(PID.TID 0000.0001) %MON ke_mean                      =   1.6677110490172E-08
(PID.TID 0000.0001) %MON ke_vol                       =   4.2725366756765E+12
(PID.TID 0000.0001) // =======================================================
(PID.TID 0000.0001) // End MONITOR dynamic field statistics
(PID.TID 0000.0001) // =======================================================
(PID.TID 0000.0001) // =======================================================
(PID.TID 0000.0001) // Begin OBCS MONITOR field statistics
(PID.TID 0000.0001) // =======================================================
(PID.TID 0000.0001) %MON obc_N_vVel_max               =   1.4573586841719E-05
(PID.TID 0000.0001) %MON obc_N_vVel_min               =   1.4573586841718E-05
(PID.TID 0000.0001) %MON obc_N_vVel_mean              =   1.4573586841718E-05
(PID.TID 0000.0001) %MON obc_N_vVel_sd                =   3.7395885109160E-12
(PID.TID 0000.0001) %MON obc_N_vVel_Int               =   9.6185673155341E+02
(PID.TID 0000.0001) // =======================================================
(PID.TID 0000.0001) // End OBCS MONITOR field statistics
(PID.TID 0000.0001) // =======================================================
 cg2d: Sum(rhs),rhsMax =   4.51805918750643E+00  2.99877157521486E+02
(PID.TID 0000.0001)      cg2d_init_res =   7.15606348109596E-06
(PID.TID 0000.0001)      cg2d_iters(min,last) =      -1      75
(PID.TID 0000.0001)      cg2d_last_res =   8.97452816255197E-12
(PID.TID 0000.0001) // =======================================================
(PID.TID 0000.0001) // Begin MONITOR dynamic field statistics
(PID.TID 0000.0001) // =======================================================
(PID.TID 0000.0001) %MON time_tsnumber                =                   300
(PID.TID 0000.0001) %MON time_secondsf                =   3.0000000000000E+04
(PID.TID 0000.0001) %MON dynstat_eta_max              =   5.7977668732172E+00
(PID.TID 0000.0001) %MON dynstat_eta_min              =  -1.4195889537613E+01
(PID.TID 0000.0001) %MON dynstat_eta_mean             =  -2.5090050864134E+00
(PID.TID 0000.0001) %MON dynstat_eta_sd               =   4.9516918858654E+00
(PID.TID 0000.0001) %MON dynstat_eta_del2             =   2.0714036203195E-01
(PID.TID 0000.0001) %MON dynstat_uvel_max             =   2.1466680601865E-03
(PID.TID 0000.0001) %MON dynstat_uvel_min             =  -3.0385411460938E-03
(PID.TID 0000.0001) %MON dynstat_uvel_mean            =  -1.1571617593057E-07
(PID.TID 0000.0001) %MON dynstat_uvel_sd              =   1.1528313105232E-04
(PID.TID 0000.0001) %MON dynstat_uvel_del2            =   3.1984358486536E-07
(PID.TID 0000.0001) %MON dynstat_vvel_max             =   4.1929563435144E-03
(PID.TID 0000.0001) %MON dynstat_vvel_min             =  -3.0574568957231E-03
(PID.TID 0000.0001) %MON dynstat_vvel_mean            =   1.4760452519639E-05
(PID.TID 0000.0001) %MON dynstat_vvel_sd              =   1.4224187008762E-04
(PID.TID 0000.0001) %MON dynstat_vvel_del2            =   4.5995591832388E-07
(PID.TID 0000.0001) %MON dynstat_wvel_max             =   1.8831525663817E-04
(PID.TID 0000.0001) %MON dynstat_wvel_min             =  -1.8033754438771E-04
(PID.TID 0000.0001) %MON dynstat_wvel_mean            =   6.2534868574153E-09
(PID.TID 0000.0001) %MON dynstat_wvel_sd              =   3.4406215995877E-05
(PID.TID 0000.0001) %MON dynstat_wvel_del2            =   1.6897145332565E-07
(PID.TID 0000.0001) %MON dynstat_theta_max            =   1.2000000000000E+00
(PID.TID 0000.0001) %MON dynstat_theta_min            =  -1.0000000000000E+00
(PID.TID 0000.0001) %MON dynstat_theta_mean           =   5.6908075387115E-01
(PID.TID 0000.0001) %MON dynstat_theta_sd             =   8.6857189853331E-01
(PID.TID 0000.0001) %MON dynstat_theta_del2           =   1.2480000578574E-06
(PID.TID 0000.0001) %MON dynstat_salt_max             =   3.4700000000000E+01
(PID.TID 0000.0001) %MON dynstat_salt_min             =   3.4000000000000E+01
(PID.TID 0000.0001) %MON dynstat_salt_mean            =   3.4499246442822E+01
(PID.TID 0000.0001) %MON dynstat_salt_sd              =   2.7636207408640E-01
(PID.TID 0000.0001) %MON dynstat_salt_del2            =   4.1190615130793E-07
(PID.TID 0000.0001) %MON advcfl_uvel_max              =   3.0385411460938E-04
(PID.TID 0000.0001) %MON advcfl_vvel_max              =   4.1929563435144E-04
(PID.TID 0000.0001) %MON advcfl_wvel_max              =   9.4157628319083E-04
(PID.TID 0000.0001) %MON advcfl_W_hf_max              =   9.4157628319083E-04
(PID.TID 0000.0001) %MON pe_b_mean                    =  -8.3136080997101E-01
(PID.TID 0000.0001) %MON ke_max                       =   8.5975541365782E-06
(PID.TID 0000.0001) %MON ke_mean                      =   1.6737048054643E-08
(PID.TID 0000.0001) %MON ke_vol                       =   4.2725365926995E+12
(PID.TID 0000.0001) // =======================================================
(PID.TID 0000.0001) // End MONITOR dynamic field statistics
(PID.TID 0000.0001) // =======================================================
(PID.TID 0000.0001) // =======================================================
(PID.TID 0000.0001) // Begin OBCS MONITOR field statistics
(PID.TID 0000.0001) // =======================================================
(PID.TID 0000.0001) %MON obc_N_vVel_max               =   1.4564479102403E-05
(PID.TID 0000.0001) %MON obc_N_vVel_min               =   1.4564479102403E-05
(PID.TID 0000.0001) %MON obc_N_vVel_mean              =   1.4564479102403E-05
(PID.TID 0000.0001) %MON obc_N_vVel_sd                =  -2.5565050806717E-23
(PID.TID 0000.0001) %MON obc_N_vVel_Int               =   9.6125562075861E+02
(PID.TID 0000.0001) // =======================================================
(PID.TID 0000.0001) // End OBCS MONITOR field statistics
(PID.TID 0000.0001) // =======================================================
 cg2d: Sum(rhs),rhsMax =   4.51808318851647E+00  2.99877232132439E+02
(PID.TID 0000.0001)      cg2d_init_res =   7.15928715589663E-06
(PID.TID 0000.0001)      cg2d_iters(min,last) =      -1      75
(PID.TID 0000.0001)      cg2d_last_res =   9.06067414389402E-12
(PID.TID 0000.0001) // =======================================================
(PID.TID 0000.0001) // Begin MONITOR dynamic field statistics
(PID.TID 0000.0001) // =======================================================
(PID.TID 0000.0001) %MON time_tsnumber                =                   301
(PID.TID 0000.0001) %MON time_secondsf                =   3.0100000000000E+04
(PID.TID 0000.0001) %MON dynstat_eta_max              =   5.7977331545072E+00
(PID.TID 0000.0001) %MON dynstat_eta_min              =  -1.4195906055798E+01
(PID.TID 0000.0001) %MON dynstat_eta_mean             =  -2.5090190391045E+00
(PID.TID 0000.0001) %MON dynstat_eta_sd               =   4.9516964532384E+00
(PID.TID 0000.0001) %MON dynstat_eta_del2             =   2.0714036432478E-01
(PID.TID 0000.0001) %MON dynstat_uvel_max             =   2.1374676130534E-03
(PID.TID 0000.0001) %MON dynstat_uvel_min             =  -3.0495139040750E-03
(PID.TID 0000.0001) %MON dynstat_uvel_mean            =  -1.1599980759856E-07
(PID.TID 0000.0001) %MON dynstat_uvel_sd              =   1.1566812145923E-04
(PID.TID 0000.0001) %MON dynstat_uvel_del2            =   3.1945665331218E-07
(PID.TID 0000.0001) %MON dynstat_vvel_max             =   4.1899568197792E-03
(PID.TID 0000.0001) %MON dynstat_vvel_min             =  -3.0526383010852E-03
(PID.TID 0000.0001) %MON dynstat_vvel_mean            =   1.4759492947275E-05
(PID.TID 0000.0001) %MON dynstat_vvel_sd              =   1.4235790084362E-04
(PID.TID 0000.0001) %MON dynstat_vvel_del2            =   4.5903519050687E-07
(PID.TID 0000.0001) %MON dynstat_wvel_max             =   1.8788451905559E-04
(PID.TID 0000.0001) %MON dynstat_wvel_min             =  -1.7080096948779E-04
(PID.TID 0000.0001) %MON dynstat_wvel_mean            =   6.2948495822917E-09
(PID.TID 0000.0001) %MON dynstat_wvel_sd              =   3.4339799136611E-05
(PID.TID 0000.0001) %MON dynstat_wvel_del2            =   1.6857814818316E-07
(PID.TID 0000.0001) %MON dynstat_theta_max            =   1.2000000000000E+00
(PID.TID 0000.0001) %MON dynstat_theta_min            =  -1.0000000000000E+00
(PID.TID 0000.0001) %MON dynstat_theta_mean           =   5.6908049352784E-01
(PID.TID 0000.0001) %MON dynstat_theta_sd             =   8.6857176350467E-01
(PID.TID 0000.0001) %MON dynstat_theta_del2           =   1.2447146888752E-06
(PID.TID 0000.0001) %MON dynstat_salt_max             =   3.4700000000000E+01
(PID.TID 0000.0001) %MON dynstat_salt_min             =   3.4000000000000E+01
(PID.TID 0000.0001) %MON dynstat_salt_mean            =   3.4499246338599E+01
(PID.TID 0000.0001) %MON dynstat_salt_sd              =   2.7636202528579E-01
(PID.TID 0000.0001) %MON dynstat_salt_del2            =   4.1100989282097E-07
(PID.TID 0000.0001) %MON advcfl_uvel_max              =   3.0495139040750E-04
(PID.TID 0000.0001) %MON advcfl_vvel_max              =   4.1899568197792E-04
(PID.TID 0000.0001) %MON advcfl_wvel_max              =   9.3942259527796E-04
(PID.TID 0000.0001) %MON advcfl_W_hf_max              =   9.3942259527796E-04
(PID.TID 0000.0001) %MON pe_b_mean                    =  -8.3136484114703E-01
(PID.TID 0000.0001) %MON ke_max                       =   8.6115567554113E-06
(PID.TID 0000.0001) %MON ke_mean                      =   1.6797120383082E-08
(PID.TID 0000.0001) %MON ke_vol                       =   4.2725365097867E+12
(PID.TID 0000.0001) // =======================================================
(PID.TID 0000.0001) // End MONITOR dynamic field statistics
(PID.TID 0000.0001) // =======================================================
(PID.TID 0000.0001) // =======================================================
(PID.TID 0000.0001) // Begin OBCS MONITOR field statistics
(PID.TID 0000.0001) // =======================================================
(PID.TID 0000.0001) %MON obc_N_vVel_max               =   1.4560006736321E-05
(PID.TID 0000.0001) %MON obc_N_vVel_min               =   1.4560006736321E-05
(PID.TID 0000.0001) %MON obc_N_vVel_mean              =   1.4560006736321E-05
(PID.TID 0000.0001) %MON obc_N_vVel_sd                =   3.6450773090749E-12
(PID.TID 0000.0001) %MON obc_N_vVel_Int               =   9.6096044459719E+02
(PID.TID 0000.0001) // =======================================================
(PID.TID 0000.0001) // End OBCS MONITOR field statistics
(PID.TID 0000.0001) // =======================================================
 cg2d: Sum(rhs),rhsMax =   4.51810718393650E+00  2.99877307033422E+02
(PID.TID 0000.0001)      cg2d_init_res =   7.16063165853102E-06
(PID.TID 0000.0001)      cg2d_iters(min,last) =      -1      75
(PID.TID 0000.0001)      cg2d_last_res =   9.12860575100068E-12
(PID.TID 0000.0001) // =======================================================
(PID.TID 0000.0001) // Begin MONITOR dynamic field statistics
(PID.TID 0000.0001) // =======================================================
(PID.TID 0000.0001) %MON time_tsnumber                =                   302
(PID.TID 0000.0001) %MON time_secondsf                =   3.0200000000000E+04
(PID.TID 0000.0001) %MON dynstat_eta_max              =   5.7976994570869E+00
(PID.TID 0000.0001) %MON dynstat_eta_min              =  -1.4195922588041E+01
(PID.TID 0000.0001) %MON dynstat_eta_mean             =  -2.5090329911245E+00
(PID.TID 0000.0001) %MON dynstat_eta_sd               =   4.9517010246184E+00
(PID.TID 0000.0001) %MON dynstat_eta_del2             =   2.0714036663872E-01
(PID.TID 0000.0001) %MON dynstat_uvel_max             =   2.1282137601002E-03
(PID.TID 0000.0001) %MON dynstat_uvel_min             =  -3.0604192289748E-03
(PID.TID 0000.0001) %MON dynstat_uvel_mean            =  -1.1627660642227E-07
(PID.TID 0000.0001) %MON dynstat_uvel_sd              =   1.1605455350162E-04
(PID.TID 0000.0001) %MON dynstat_uvel_del2            =   3.1907545365111E-07
(PID.TID 0000.0001) %MON dynstat_vvel_max             =   4.1868555016382E-03
(PID.TID 0000.0001) %MON dynstat_vvel_min             =  -3.0477429714368E-03
(PID.TID 0000.0001) %MON dynstat_vvel_mean            =   1.4763767268511E-05
(PID.TID 0000.0001) %MON dynstat_vvel_sd              =   1.4247167510756E-04
(PID.TID 0000.0001) %MON dynstat_vvel_del2            =   4.5805556178067E-07
(PID.TID 0000.0001) %MON dynstat_wvel_max             =   1.8745008282227E-04
(PID.TID 0000.0001) %MON dynstat_wvel_min             =  -1.6749634150968E-04
(PID.TID 0000.0001) %MON dynstat_wvel_mean            =   6.3418409304595E-09
(PID.TID 0000.0001) %MON dynstat_wvel_sd              =   3.4268203612779E-05
(PID.TID 0000.0001) %MON dynstat_wvel_del2            =   1.6810430652473E-07
(PID.TID 0000.0001) %MON dynstat_theta_max            =   1.2000000000000E+00
(PID.TID 0000.0001) %MON dynstat_theta_min            =  -1.0000000000000E+00
(PID.TID 0000.0001) %MON dynstat_theta_mean           =   5.6908023309427E-01
(PID.TID 0000.0001) %MON dynstat_theta_sd             =   8.6857162846238E-01
(PID.TID 0000.0001) %MON dynstat_theta_del2           =   1.2415214625596E-06
(PID.TID 0000.0001) %MON dynstat_salt_max             =   3.4700000000000E+01
(PID.TID 0000.0001) %MON dynstat_salt_min             =   3.4000000000000E+01
(PID.TID 0000.0001) %MON dynstat_salt_mean            =   3.4499246234340E+01
(PID.TID 0000.0001) %MON dynstat_salt_sd              =   2.7636197647701E-01
(PID.TID 0000.0001) %MON dynstat_salt_del2            =   4.1014215287772E-07
(PID.TID 0000.0001) %MON advcfl_uvel_max              =   3.0604192289748E-04
(PID.TID 0000.0001) %MON advcfl_vvel_max              =   4.1868555016382E-04
(PID.TID 0000.0001) %MON advcfl_wvel_max              =   9.3725041411137E-04
(PID.TID 0000.0001) %MON advcfl_W_hf_max              =   9.3725041411137E-04
(PID.TID 0000.0001) %MON pe_b_mean                    =  -8.3136887346150E-01
(PID.TID 0000.0001) %MON ke_max                       =   8.6252645969311E-06
(PID.TID 0000.0001) %MON ke_mean                      =   1.6857270725871E-08
(PID.TID 0000.0001) %MON ke_vol                       =   4.2725364269077E+12
(PID.TID 0000.0001) // =======================================================
(PID.TID 0000.0001) // End MONITOR dynamic field statistics
(PID.TID 0000.0001) // =======================================================
(PID.TID 0000.0001) // =======================================================
(PID.TID 0000.0001) // Begin OBCS MONITOR field statistics
(PID.TID 0000.0001) // =======================================================
(PID.TID 0000.0001) %MON obc_N_vVel_max               =   1.4560090797697E-05
(PID.TID 0000.0001) %MON obc_N_vVel_min               =   1.4560090797696E-05
(PID.TID 0000.0001) %MON obc_N_vVel_mean              =   1.4560090797696E-05
(PID.TID 0000.0001) %MON obc_N_vVel_sd                =   4.4931477635531E-12
(PID.TID 0000.0001) %MON obc_N_vVel_Int               =   9.6096599264796E+02
(PID.TID 0000.0001) // =======================================================
(PID.TID 0000.0001) // End OBCS MONITOR field statistics
(PID.TID 0000.0001) // =======================================================
 cg2d: Sum(rhs),rhsMax =   4.51813118252691E+00  2.99877382218767E+02
(PID.TID 0000.0001)      cg2d_init_res =   7.15968122937789E-06
(PID.TID 0000.0001)      cg2d_iters(min,last) =      -1      75
(PID.TID 0000.0001)      cg2d_last_res =   9.17523085884952E-12
(PID.TID 0000.0001) // =======================================================
(PID.TID 0000.0001) // Begin MONITOR dynamic field statistics
(PID.TID 0000.0001) // =======================================================
(PID.TID 0000.0001) %MON time_tsnumber                =                   303
(PID.TID 0000.0001) %MON time_secondsf                =   3.0300000000000E+04
(PID.TID 0000.0001) %MON dynstat_eta_max              =   5.7976657768418E+00
(PID.TID 0000.0001) %MON dynstat_eta_min              =  -1.4195939144000E+01
(PID.TID 0000.0001) %MON dynstat_eta_mean             =  -2.5090469472910E+00
(PID.TID 0000.0001) %MON dynstat_eta_sd               =   4.9517056013439E+00
(PID.TID 0000.0001) %MON dynstat_eta_del2             =   2.0714036897558E-01
(PID.TID 0000.0001) %MON dynstat_uvel_max             =   2.1189071716954E-03
(PID.TID 0000.0001) %MON dynstat_uvel_min             =  -3.0712567063211E-03
(PID.TID 0000.0001) %MON dynstat_uvel_mean            =  -1.1654008235358E-07
(PID.TID 0000.0001) %MON dynstat_uvel_sd              =   1.1644240445897E-04
(PID.TID 0000.0001) %MON dynstat_uvel_del2            =   3.1869994958237E-07
(PID.TID 0000.0001) %MON dynstat_vvel_max             =   4.1836523702710E-03
(PID.TID 0000.0001) %MON dynstat_vvel_min             =  -3.0427720060349E-03
(PID.TID 0000.0001) %MON dynstat_vvel_mean            =   1.4772941760596E-05
(PID.TID 0000.0001) %MON dynstat_vvel_sd              =   1.4258319903764E-04
(PID.TID 0000.0001) %MON dynstat_vvel_del2            =   4.5701905082771E-07
(PID.TID 0000.0001) %MON dynstat_wvel_max             =   1.8701199170458E-04
(PID.TID 0000.0001) %MON dynstat_wvel_min             =  -1.6275155882165E-04
(PID.TID 0000.0001) %MON dynstat_wvel_mean            =   6.3929762681569E-09
(PID.TID 0000.0001) %MON dynstat_wvel_sd              =   3.4191530787103E-05
(PID.TID 0000.0001) %MON dynstat_wvel_del2            =   1.6755316724026E-07
(PID.TID 0000.0001) %MON dynstat_theta_max            =   1.2000000000000E+00
(PID.TID 0000.0001) %MON dynstat_theta_min            =  -1.0000000000000E+00
(PID.TID 0000.0001) %MON dynstat_theta_mean           =   5.6907997256903E-01
(PID.TID 0000.0001) %MON dynstat_theta_sd             =   8.6857149340368E-01
(PID.TID 0000.0001) %MON dynstat_theta_del2           =   1.2384139036616E-06
(PID.TID 0000.0001) %MON dynstat_salt_max             =   3.4700000000000E+01
(PID.TID 0000.0001) %MON dynstat_salt_min             =   3.4000000000000E+01
(PID.TID 0000.0001) %MON dynstat_salt_mean            =   3.4499246130044E+01
(PID.TID 0000.0001) %MON dynstat_salt_sd              =   2.7636192765909E-01
(PID.TID 0000.0001) %MON dynstat_salt_del2            =   4.0930095795790E-07
(PID.TID 0000.0001) %MON advcfl_uvel_max              =   3.0712567063211E-04
(PID.TID 0000.0001) %MON advcfl_vvel_max              =   4.1836523702710E-04
(PID.TID 0000.0001) %MON advcfl_wvel_max              =   9.3505995852288E-04
(PID.TID 0000.0001) %MON advcfl_W_hf_max              =   9.3505995852288E-04
(PID.TID 0000.0001) %MON pe_b_mean                    =  -8.3137290811311E-01
(PID.TID 0000.0001) %MON ke_max                       =   8.6386759984381E-06
(PID.TID 0000.0001) %MON ke_mean                      =   1.6917493394301E-08
(PID.TID 0000.0001) %MON ke_vol                       =   4.2725363440327E+12
(PID.TID 0000.0001) // =======================================================
(PID.TID 0000.0001) // End MONITOR dynamic field statistics
(PID.TID 0000.0001) // =======================================================
(PID.TID 0000.0001) // =======================================================
(PID.TID 0000.0001) // Begin OBCS MONITOR field statistics
(PID.TID 0000.0001) // =======================================================
(PID.TID 0000.0001) %MON obc_N_vVel_max               =   1.4564535952656E-05
(PID.TID 0000.0001) %MON obc_N_vVel_min               =   1.4564535952656E-05
(PID.TID 0000.0001) %MON obc_N_vVel_mean              =   1.4564535952656E-05
(PID.TID 0000.0001) %MON obc_N_vVel_sd                =   3.9316583901815E-12
(PID.TID 0000.0001) %MON obc_N_vVel_Int               =   9.6125937287530E+02
(PID.TID 0000.0001) // =======================================================
(PID.TID 0000.0001) // End OBCS MONITOR field statistics
(PID.TID 0000.0001) // =======================================================
 cg2d: Sum(rhs),rhsMax =   4.51815519253065E+00  2.99877457677866E+02
(PID.TID 0000.0001)      cg2d_init_res =   7.15628149142410E-06
(PID.TID 0000.0001)      cg2d_iters(min,last) =      -1      75
(PID.TID 0000.0001)      cg2d_last_res =   9.20075985919055E-12
(PID.TID 0000.0001) // =======================================================
(PID.TID 0000.0001) // Begin MONITOR dynamic field statistics
(PID.TID 0000.0001) // =======================================================
(PID.TID 0000.0001) %MON time_tsnumber                =                   304
(PID.TID 0000.0001) %MON time_secondsf                =   3.0400000000000E+04
(PID.TID 0000.0001) %MON dynstat_eta_max              =   5.7976321100153E+00
(PID.TID 0000.0001) %MON dynstat_eta_min              =  -1.4195955732293E+01
(PID.TID 0000.0001) %MON dynstat_eta_mean             =  -2.5090609120929E+00
(PID.TID 0000.0001) %MON dynstat_eta_sd               =   4.9517101845463E+00
(PID.TID 0000.0001) %MON dynstat_eta_del2             =   2.0714037133646E-01
(PID.TID 0000.0001) %MON dynstat_uvel_max             =   2.1095485113669E-03
(PID.TID 0000.0001) %MON dynstat_uvel_min             =  -3.0820259266843E-03
(PID.TID 0000.0001) %MON dynstat_uvel_mean            =  -1.1678399242396E-07
(PID.TID 0000.0001) %MON dynstat_uvel_sd              =   1.1683165057655E-04
(PID.TID 0000.0001) %MON dynstat_uvel_del2            =   3.1833009768398E-07
(PID.TID 0000.0001) %MON dynstat_vvel_max             =   4.1803472636381E-03
(PID.TID 0000.0001) %MON dynstat_vvel_min             =  -3.0377266468458E-03
(PID.TID 0000.0001) %MON dynstat_vvel_mean            =   1.4786565603921E-05
(PID.TID 0000.0001) %MON dynstat_vvel_sd              =   1.4269283760858E-04
(PID.TID 0000.0001) %MON dynstat_vvel_del2            =   4.5593603068699E-07
(PID.TID 0000.0001) %MON dynstat_wvel_max             =   1.8657029035311E-04
(PID.TID 0000.0001) %MON dynstat_wvel_min             =  -1.5980300580895E-04
(PID.TID 0000.0001) %MON dynstat_wvel_mean            =   6.4467106017203E-09
(PID.TID 0000.0001) %MON dynstat_wvel_sd              =   3.4110577356405E-05
(PID.TID 0000.0001) %MON dynstat_wvel_del2            =   1.6693828799848E-07
(PID.TID 0000.0001) %MON dynstat_theta_max            =   1.2000000000000E+00
(PID.TID 0000.0001) %MON dynstat_theta_min            =  -1.0000000000000E+00
(PID.TID 0000.0001) %MON dynstat_theta_mean           =   5.6907971195144E-01
(PID.TID 0000.0001) %MON dynstat_theta_sd             =   8.6857135831859E-01
(PID.TID 0000.0001) %MON dynstat_theta_del2           =   1.2353774012184E-06
(PID.TID 0000.0001) %MON dynstat_salt_max             =   3.4700000000000E+01
(PID.TID 0000.0001) %MON dynstat_salt_min             =   3.4000000000000E+01
(PID.TID 0000.0001) %MON dynstat_salt_mean            =   3.4499246025711E+01
(PID.TID 0000.0001) %MON dynstat_salt_sd              =   2.7636187882886E-01
(PID.TID 0000.0001) %MON dynstat_salt_del2            =   4.0848183569064E-07
(PID.TID 0000.0001) %MON advcfl_uvel_max              =   3.0820259266843E-04
(PID.TID 0000.0001) %MON advcfl_vvel_max              =   4.1803472636381E-04
(PID.TID 0000.0001) %MON advcfl_wvel_max              =   9.3285145176557E-04
(PID.TID 0000.0001) %MON advcfl_W_hf_max              =   9.3285145176557E-04
(PID.TID 0000.0001) %MON pe_b_mean                    =  -8.3137694618225E-01
(PID.TID 0000.0001) %MON ke_max                       =   8.6517888710826E-06
(PID.TID 0000.0001) %MON ke_mean                      =   1.6977832110640E-08
(PID.TID 0000.0001) %MON ke_vol                       =   4.2725362611331E+12
(PID.TID 0000.0001) // =======================================================
(PID.TID 0000.0001) // End MONITOR dynamic field statistics
(PID.TID 0000.0001) // =======================================================
(PID.TID 0000.0001) // =======================================================
(PID.TID 0000.0001) // Begin OBCS MONITOR field statistics
(PID.TID 0000.0001) // =======================================================
(PID.TID 0000.0001) %MON obc_N_vVel_max               =   1.4573039380131E-05
(PID.TID 0000.0001) %MON obc_N_vVel_min               =   1.4573039380131E-05
(PID.TID 0000.0001) %MON obc_N_vVel_mean              =   1.4573039380131E-05
(PID.TID 0000.0001) %MON obc_N_vVel_sd                =   3.3300735858295E-12
(PID.TID 0000.0001) %MON obc_N_vVel_Int               =   9.6182059908863E+02
(PID.TID 0000.0001) // =======================================================
(PID.TID 0000.0001) // End OBCS MONITOR field statistics
(PID.TID 0000.0001) // =======================================================
 cg2d: Sum(rhs),rhsMax =   4.51817922140296E+00  2.99877533395665E+02
(PID.TID 0000.0001)      cg2d_init_res =   7.15050790486716E-06
(PID.TID 0000.0001)      cg2d_iters(min,last) =      -1      75
(PID.TID 0000.0001)      cg2d_last_res =   9.21043944034280E-12
(PID.TID 0000.0001) // =======================================================
(PID.TID 0000.0001) // Begin MONITOR dynamic field statistics
(PID.TID 0000.0001) // =======================================================
(PID.TID 0000.0001) %MON time_tsnumber                =                   305
(PID.TID 0000.0001) %MON time_secondsf                =   3.0500000000000E+04
(PID.TID 0000.0001) %MON dynstat_eta_max              =   5.7975984531611E+00
(PID.TID 0000.0001) %MON dynstat_eta_min              =  -1.4195972360313E+01
(PID.TID 0000.0001) %MON dynstat_eta_mean             =  -2.5090748895442E+00
(PID.TID 0000.0001) %MON dynstat_eta_sd               =   4.9517147751274E+00
(PID.TID 0000.0001) %MON dynstat_eta_del2             =   2.0714037372330E-01
(PID.TID 0000.0001) %MON dynstat_uvel_max             =   2.1001384357380E-03
(PID.TID 0000.0001) %MON dynstat_uvel_min             =  -3.0927264857650E-03
(PID.TID 0000.0001) %MON dynstat_uvel_mean            =  -1.1700252185176E-07
(PID.TID 0000.0001) %MON dynstat_uvel_sd              =   1.1722226712223E-04
(PID.TID 0000.0001) %MON dynstat_uvel_del2            =   3.1796584772419E-07
(PID.TID 0000.0001) %MON dynstat_vvel_max             =   4.1769399001677E-03
(PID.TID 0000.0001) %MON dynstat_vvel_min             =  -3.0326082550705E-03
(PID.TID 0000.0001) %MON dynstat_vvel_mean            =   1.4804086879400E-05
(PID.TID 0000.0001) %MON dynstat_vvel_sd              =   1.4280125384573E-04
(PID.TID 0000.0001) %MON dynstat_vvel_del2            =   4.5482367295540E-07
(PID.TID 0000.0001) %MON dynstat_wvel_max             =   1.8612502395601E-04
(PID.TID 0000.0001) %MON dynstat_wvel_min             =  -1.6603281780169E-04
(PID.TID 0000.0001) %MON dynstat_wvel_mean            =   6.5014830434940E-09
(PID.TID 0000.0001) %MON dynstat_wvel_sd              =   3.4026717925732E-05
(PID.TID 0000.0001) %MON dynstat_wvel_del2            =   1.6628162704800E-07
(PID.TID 0000.0001) %MON dynstat_theta_max            =   1.2000000000000E+00
(PID.TID 0000.0001) %MON dynstat_theta_min            =  -1.0000000000000E+00
(PID.TID 0000.0001) %MON dynstat_theta_mean           =   5.6907945123679E-01
(PID.TID 0000.0001) %MON dynstat_theta_sd             =   8.6857122321523E-01
(PID.TID 0000.0001) %MON dynstat_theta_del2           =   1.2323906823723E-06
(PID.TID 0000.0001) %MON dynstat_salt_max             =   3.4700000000000E+01
(PID.TID 0000.0001) %MON dynstat_salt_min             =   3.4000000000000E+01
(PID.TID 0000.0001) %MON dynstat_salt_mean            =   3.4499245921338E+01
(PID.TID 0000.0001) %MON dynstat_salt_sd              =   2.7636182998837E-01
(PID.TID 0000.0001) %MON dynstat_salt_del2            =   4.0767830394386E-07
(PID.TID 0000.0001) %MON advcfl_uvel_max              =   3.0927264857650E-04
(PID.TID 0000.0001) %MON advcfl_vvel_max              =   4.1769399001677E-04
(PID.TID 0000.0001) %MON advcfl_wvel_max              =   9.3062511978004E-04
(PID.TID 0000.0001) %MON advcfl_W_hf_max              =   9.3062511978004E-04
(PID.TID 0000.0001) %MON pe_b_mean                    =  -8.3138098859413E-01
(PID.TID 0000.0001) %MON ke_max                       =   8.6646007764335E-06
(PID.TID 0000.0001) %MON ke_mean                      =   1.7038371737334E-08
(PID.TID 0000.0001) %MON ke_vol                       =   4.2725361781822E+12
(PID.TID 0000.0001) // =======================================================
(PID.TID 0000.0001) // End MONITOR dynamic field statistics
(PID.TID 0000.0001) // =======================================================
(PID.TID 0000.0001) // =======================================================
(PID.TID 0000.0001) // Begin OBCS MONITOR field statistics
(PID.TID 0000.0001) // =======================================================
(PID.TID 0000.0001) %MON obc_N_vVel_max               =   1.4585202334027E-05
(PID.TID 0000.0001) %MON obc_N_vVel_min               =   1.4585202334027E-05
(PID.TID 0000.0001) %MON obc_N_vVel_mean              =   1.4585202334027E-05
(PID.TID 0000.0001) %MON obc_N_vVel_sd                =   3.1505820653708E-12
(PID.TID 0000.0001) %MON obc_N_vVel_Int               =   9.6262335404577E+02
(PID.TID 0000.0001) // =======================================================
(PID.TID 0000.0001) // End OBCS MONITOR field statistics
(PID.TID 0000.0001) // =======================================================
 cg2d: Sum(rhs),rhsMax =   4.51820327571035E+00  2.99877609353325E+02
(PID.TID 0000.0001)      cg2d_init_res =   7.14263642382245E-06
(PID.TID 0000.0001)      cg2d_iters(min,last) =      -1      75
(PID.TID 0000.0001)      cg2d_last_res =   9.21160395773543E-12
(PID.TID 0000.0001) // =======================================================
(PID.TID 0000.0001) // Begin MONITOR dynamic field statistics
(PID.TID 0000.0001) // =======================================================
(PID.TID 0000.0001) %MON time_tsnumber                =                   306
(PID.TID 0000.0001) %MON time_secondsf                =   3.0600000000000E+04
(PID.TID 0000.0001) %MON dynstat_eta_max              =   5.7975648032479E+00
(PID.TID 0000.0001) %MON dynstat_eta_min              =  -1.4195989034065E+01
(PID.TID 0000.0001) %MON dynstat_eta_mean             =  -2.5090888831340E+00
(PID.TID 0000.0001) %MON dynstat_eta_sd               =   4.9517193737297E+00
(PID.TID 0000.0001) %MON dynstat_eta_del2             =   2.0714037613620E-01
(PID.TID 0000.0001) %MON dynstat_uvel_max             =   2.0906775953673E-03
(PID.TID 0000.0001) %MON dynstat_uvel_min             =  -3.1033579847148E-03
(PID.TID 0000.0001) %MON dynstat_uvel_mean            =  -1.1719053045364E-07
(PID.TID 0000.0001) %MON dynstat_uvel_sd              =   1.1761422851495E-04
(PID.TID 0000.0001) %MON dynstat_uvel_del2            =   3.1760714365155E-07
(PID.TID 0000.0001) %MON dynstat_vvel_max             =   4.1734299040588E-03
(PID.TID 0000.0001) %MON dynstat_vvel_min             =  -3.0274182861412E-03
(PID.TID 0000.0001) %MON dynstat_vvel_mean            =   1.4824870649816E-05
(PID.TID 0000.0001) %MON dynstat_vvel_sd              =   1.4290930976182E-04
(PID.TID 0000.0001) %MON dynstat_vvel_del2            =   4.5370352993006E-07
(PID.TID 0000.0001) %MON dynstat_wvel_max             =   1.8567623829950E-04
(PID.TID 0000.0001) %MON dynstat_wvel_min             =  -1.7580934602645E-04
(PID.TID 0000.0001) %MON dynstat_wvel_mean            =   6.5557652679128E-09
(PID.TID 0000.0001) %MON dynstat_wvel_sd              =   3.3941713910173E-05
(PID.TID 0000.0001) %MON dynstat_wvel_del2            =   1.6561057391260E-07
(PID.TID 0000.0001) %MON dynstat_theta_max            =   1.2000000000000E+00
(PID.TID 0000.0001) %MON dynstat_theta_min            =  -1.0000000000000E+00
(PID.TID 0000.0001) %MON dynstat_theta_mean           =   5.6907919042131E-01
(PID.TID 0000.0001) %MON dynstat_theta_sd             =   8.6857108811684E-01
(PID.TID 0000.0001) %MON dynstat_theta_del2           =   1.2294318351685E-06
(PID.TID 0000.0001) %MON dynstat_salt_max             =   3.4700000000000E+01
(PID.TID 0000.0001) %MON dynstat_salt_min             =   3.4000000000000E+01
(PID.TID 0000.0001) %MON dynstat_salt_mean            =   3.4499245816925E+01
(PID.TID 0000.0001) %MON dynstat_salt_sd              =   2.7636178114486E-01
(PID.TID 0000.0001) %MON dynstat_salt_del2            =   4.0688367966603E-07
(PID.TID 0000.0001) %MON advcfl_uvel_max              =   3.1033579847148E-04
(PID.TID 0000.0001) %MON advcfl_vvel_max              =   4.1734299040588E-04
(PID.TID 0000.0001) %MON advcfl_wvel_max              =   9.2838119149752E-04
(PID.TID 0000.0001) %MON advcfl_W_hf_max              =   9.2838119149752E-04
(PID.TID 0000.0001) %MON pe_b_mean                    =  -8.3138503611157E-01
(PID.TID 0000.0001) %MON ke_max                       =   8.6771090082002E-06
(PID.TID 0000.0001) %MON ke_mean                      =   1.7099224525590E-08
(PID.TID 0000.0001) %MON ke_vol                       =   4.2725360951561E+12
(PID.TID 0000.0001) // =======================================================
(PID.TID 0000.0001) // End MONITOR dynamic field statistics
(PID.TID 0000.0001) // =======================================================
(PID.TID 0000.0001) // =======================================================
(PID.TID 0000.0001) // Begin OBCS MONITOR field statistics
(PID.TID 0000.0001) // =======================================================
(PID.TID 0000.0001) %MON obc_N_vVel_max               =   1.4600543608722E-05
(PID.TID 0000.0001) %MON obc_N_vVel_min               =   1.4600543608722E-05
(PID.TID 0000.0001) %MON obc_N_vVel_mean              =   1.4600543608722E-05
(PID.TID 0000.0001) %MON obc_N_vVel_sd                =  -1.0624100992478E-23
(PID.TID 0000.0001) %MON obc_N_vVel_Int               =   9.6363587817566E+02
(PID.TID 0000.0001) // =======================================================
(PID.TID 0000.0001) // End OBCS MONITOR field statistics
(PID.TID 0000.0001) // =======================================================
 cg2d: Sum(rhs),rhsMax =   4.51822736097042E+00  2.99877685528970E+02
(PID.TID 0000.0001)      cg2d_init_res =   7.13308200632148E-06
(PID.TID 0000.0001)      cg2d_iters(min,last) =      -1      75
(PID.TID 0000.0001)      cg2d_last_res =   9.21288826219661E-12
(PID.TID 0000.0001) // =======================================================
(PID.TID 0000.0001) // Begin MONITOR dynamic field statistics
(PID.TID 0000.0001) // =======================================================
(PID.TID 0000.0001) %MON time_tsnumber                =                   307
(PID.TID 0000.0001) %MON time_secondsf                =   3.0700000000000E+04
(PID.TID 0000.0001) %MON dynstat_eta_max              =   5.7975311577801E+00
(PID.TID 0000.0001) %MON dynstat_eta_min              =  -1.4196005758052E+01
(PID.TID 0000.0001) %MON dynstat_eta_mean             =  -2.5091028957435E+00
(PID.TID 0000.0001) %MON dynstat_eta_sd               =   4.9517239807419E+00
(PID.TID 0000.0001) %MON dynstat_eta_del2             =   2.0714037857485E-01
(PID.TID 0000.0001) %MON dynstat_uvel_max             =   2.0811666351577E-03
(PID.TID 0000.0001) %MON dynstat_uvel_min             =  -3.1139200302774E-03
(PID.TID 0000.0001) %MON dynstat_uvel_mean            =  -1.1734381657617E-07
(PID.TID 0000.0001) %MON dynstat_uvel_sd              =   1.1800750848165E-04
(PID.TID 0000.0001) %MON dynstat_uvel_del2            =   3.1725392508175E-07
(PID.TID 0000.0001) %MON dynstat_vvel_max             =   4.1698168325368E-03
(PID.TID 0000.0001) %MON dynstat_vvel_min             =  -3.0221582630192E-03
(PID.TID 0000.0001) %MON dynstat_vvel_mean            =   1.4848218809650E-05
(PID.TID 0000.0001) %MON dynstat_vvel_sd              =   1.4301794529920E-04
(PID.TID 0000.0001) %MON dynstat_vvel_del2            =   4.5259861257941E-07
(PID.TID 0000.0001) %MON dynstat_wvel_max             =   1.8522397928325E-04
(PID.TID 0000.0001) %MON dynstat_wvel_min             =  -1.8289712361357E-04
(PID.TID 0000.0001) %MON dynstat_wvel_mean            =   6.6081025196222E-09
(PID.TID 0000.0001) %MON dynstat_wvel_sd              =   3.3857477468137E-05
(PID.TID 0000.0001) %MON dynstat_wvel_del2            =   1.6495432499307E-07
(PID.TID 0000.0001) %MON dynstat_theta_max            =   1.2000000000000E+00
(PID.TID 0000.0001) %MON dynstat_theta_min            =  -1.0000000000000E+00
(PID.TID 0000.0001) %MON dynstat_theta_mean           =   5.6907892950105E-01
(PID.TID 0000.0001) %MON dynstat_theta_sd             =   8.6857095297185E-01
(PID.TID 0000.0001) %MON dynstat_theta_del2           =   1.2264784957775E-06
(PID.TID 0000.0001) %MON dynstat_salt_max             =   3.4700000000000E+01
(PID.TID 0000.0001) %MON dynstat_salt_min             =   3.4000000000000E+01
(PID.TID 0000.0001) %MON dynstat_salt_mean            =   3.4499245712468E+01
(PID.TID 0000.0001) %MON dynstat_salt_sd              =   2.7636173228147E-01
(PID.TID 0000.0001) %MON dynstat_salt_del2            =   4.0609119507234E-07
(PID.TID 0000.0001) %MON advcfl_uvel_max              =   3.1139200302774E-04
(PID.TID 0000.0001) %MON advcfl_vvel_max              =   4.1698168325368E-04
(PID.TID 0000.0001) %MON advcfl_wvel_max              =   9.2611989641626E-04
(PID.TID 0000.0001) %MON advcfl_W_hf_max              =   9.2611989641626E-04
(PID.TID 0000.0001) %MON pe_b_mean                    =  -8.3138908931745E-01
(PID.TID 0000.0001) %MON ke_max                       =   8.6893106795007E-06
(PID.TID 0000.0001) %MON ke_mean                      =   1.7160513185318E-08
(PID.TID 0000.0001) %MON ke_vol                       =   4.2725360120342E+12
(PID.TID 0000.0001) // =======================================================
(PID.TID 0000.0001) // End MONITOR dynamic field statistics
(PID.TID 0000.0001) // =======================================================
(PID.TID 0000.0001) // =======================================================
(PID.TID 0000.0001) // Begin OBCS MONITOR field statistics
(PID.TID 0000.0001) // =======================================================
(PID.TID 0000.0001) %MON obc_N_vVel_max               =   1.4618515198117E-05
(PID.TID 0000.0001) %MON obc_N_vVel_min               =   1.4618515198116E-05
(PID.TID 0000.0001) %MON obc_N_vVel_mean              =   1.4618515198117E-05
(PID.TID 0000.0001) %MON obc_N_vVel_sd                =   1.6077746776922E-12
(PID.TID 0000.0001) %MON obc_N_vVel_Int               =   9.6482200307570E+02
(PID.TID 0000.0001) // =======================================================
(PID.TID 0000.0001) // End OBCS MONITOR field statistics
(PID.TID 0000.0001) // =======================================================
 cg2d: Sum(rhs),rhsMax =   4.51825148152394E+00  2.99877761898415E+02
(PID.TID 0000.0001)      cg2d_init_res =   7.12234623068331E-06
(PID.TID 0000.0001)      cg2d_iters(min,last) =      -1      75
(PID.TID 0000.0001)      cg2d_last_res =   9.22185806016174E-12
(PID.TID 0000.0001) // =======================================================
(PID.TID 0000.0001) // Begin MONITOR dynamic field statistics
(PID.TID 0000.0001) // =======================================================
(PID.TID 0000.0001) %MON time_tsnumber                =                   308
(PID.TID 0000.0001) %MON time_secondsf                =   3.0800000000000E+04
(PID.TID 0000.0001) %MON dynstat_eta_max              =   5.7974975148022E+00
(PID.TID 0000.0001) %MON dynstat_eta_min              =  -1.4196022535219E+01
(PID.TID 0000.0001) %MON dynstat_eta_mean             =  -2.5091169295807E+00
(PID.TID 0000.0001) %MON dynstat_eta_sd               =   4.9517285963150E+00
(PID.TID 0000.0001) %MON dynstat_eta_del2             =   2.0714038103954E-01
(PID.TID 0000.0001) %MON dynstat_uvel_max             =   2.0716061947681E-03
(PID.TID 0000.0001) %MON dynstat_uvel_min             =  -3.1244122347712E-03
(PID.TID 0000.0001) %MON dynstat_uvel_mean            =  -1.1745922879852E-07
(PID.TID 0000.0001) %MON dynstat_uvel_sd              =   1.1840208017003E-04
(PID.TID 0000.0001) %MON dynstat_uvel_del2            =   3.1690612814319E-07
(PID.TID 0000.0001) %MON dynstat_vvel_max             =   4.1661002030633E-03
(PID.TID 0000.0001) %MON dynstat_vvel_min             =  -3.0168297488640E-03
(PID.TID 0000.0001) %MON dynstat_vvel_mean            =   1.4873391048162E-05
(PID.TID 0000.0001) %MON dynstat_vvel_sd              =   1.4312804981196E-04
(PID.TID 0000.0001) %MON dynstat_vvel_del2            =   4.5153032502100E-07
(PID.TID 0000.0001) %MON dynstat_wvel_max             =   1.8476829322541E-04
(PID.TID 0000.0001) %MON dynstat_wvel_min             =  -1.8717439938846E-04
(PID.TID 0000.0001) %MON dynstat_wvel_mean            =   6.6571501579955E-09
(PID.TID 0000.0001) %MON dynstat_wvel_sd              =   3.3775818786072E-05
(PID.TID 0000.0001) %MON dynstat_wvel_del2            =   1.6434003554285E-07
(PID.TID 0000.0001) %MON dynstat_theta_max            =   1.2000000000000E+00
(PID.TID 0000.0001) %MON dynstat_theta_min            =  -1.0000000000000E+00
(PID.TID 0000.0001) %MON dynstat_theta_mean           =   5.6907866847074E-01
(PID.TID 0000.0001) %MON dynstat_theta_sd             =   8.6857081773509E-01
(PID.TID 0000.0001) %MON dynstat_theta_del2           =   1.2235109749927E-06
(PID.TID 0000.0001) %MON dynstat_salt_max             =   3.4700000000000E+01
(PID.TID 0000.0001) %MON dynstat_salt_min             =   3.4000000000000E+01
(PID.TID 0000.0001) %MON dynstat_salt_mean            =   3.4499245607967E+01
(PID.TID 0000.0001) %MON dynstat_salt_sd              =   2.7636168338360E-01
(PID.TID 0000.0001) %MON dynstat_salt_del2            =   4.0529490635858E-07
(PID.TID 0000.0001) %MON advcfl_uvel_max              =   3.1244122347712E-04
(PID.TID 0000.0001) %MON advcfl_vvel_max              =   4.1661002030633E-04
(PID.TID 0000.0001) %MON advcfl_wvel_max              =   9.3587199694230E-04
(PID.TID 0000.0001) %MON advcfl_W_hf_max              =   9.3587199694230E-04
(PID.TID 0000.0001) %MON pe_b_mean                    =  -8.3139314860402E-01
(PID.TID 0000.0001) %MON ke_max                       =   8.7012028094134E-06
(PID.TID 0000.0001) %MON ke_mean                      =   1.7222352829138E-08
(PID.TID 0000.0001) %MON ke_vol                       =   4.2725359287993E+12
(PID.TID 0000.0001) // =======================================================
(PID.TID 0000.0001) // End MONITOR dynamic field statistics
(PID.TID 0000.0001) // =======================================================
(PID.TID 0000.0001) // =======================================================
(PID.TID 0000.0001) // Begin OBCS MONITOR field statistics
(PID.TID 0000.0001) // =======================================================
(PID.TID 0000.0001) %MON obc_N_vVel_max               =   1.4638519215661E-05
(PID.TID 0000.0001) %MON obc_N_vVel_min               =   1.4638519215661E-05
(PID.TID 0000.0001) %MON obc_N_vVel_mean              =   1.4638519215661E-05
(PID.TID 0000.0001) %MON obc_N_vVel_sd                =   2.3901288888770E-12
(PID.TID 0000.0001) %MON obc_N_vVel_Int               =   9.6614226823361E+02
(PID.TID 0000.0001) // =======================================================
(PID.TID 0000.0001) // End OBCS MONITOR field statistics
(PID.TID 0000.0001) // =======================================================
 cg2d: Sum(rhs),rhsMax =   4.51827564050814E+00  2.99877838435932E+02
(PID.TID 0000.0001)      cg2d_init_res =   7.11093328510825E-06
(PID.TID 0000.0001)      cg2d_iters(min,last) =      -1      75
(PID.TID 0000.0001)      cg2d_last_res =   9.25136140956108E-12
(PID.TID 0000.0001) // =======================================================
(PID.TID 0000.0001) // Begin MONITOR dynamic field statistics
(PID.TID 0000.0001) // =======================================================
(PID.TID 0000.0001) %MON time_tsnumber                =                   309
(PID.TID 0000.0001) %MON time_secondsf                =   3.0900000000000E+04
(PID.TID 0000.0001) %MON dynstat_eta_max              =   5.7974638729489E+00
(PID.TID 0000.0001) %MON dynstat_eta_min              =  -1.4196039366973E+01
(PID.TID 0000.0001) %MON dynstat_eta_mean             =  -2.5091309861728E+00
(PID.TID 0000.0001) %MON dynstat_eta_sd               =   4.9517332203725E+00
(PID.TID 0000.0001) %MON dynstat_eta_del2             =   2.0714038353142E-01
(PID.TID 0000.0001) %MON dynstat_uvel_max             =   2.0619969097719E-03
(PID.TID 0000.0001) %MON dynstat_uvel_min             =  -3.1348342167613E-03
(PID.TID 0000.0001) %MON dynstat_uvel_mean            =  -1.1753472196038E-07
(PID.TID 0000.0001) %MON dynstat_uvel_sd              =   1.1879791631885E-04
(PID.TID 0000.0001) %MON dynstat_uvel_del2            =   3.1656368708812E-07
(PID.TID 0000.0001) %MON dynstat_vvel_max             =   4.1622795200080E-03
(PID.TID 0000.0001) %MON dynstat_vvel_min             =  -3.0114343199648E-03
(PID.TID 0000.0001) %MON dynstat_vvel_mean            =   1.4899626256168E-05
(PID.TID 0000.0001) %MON dynstat_vvel_sd              =   1.4324034504068E-04
(PID.TID 0000.0001) %MON dynstat_vvel_del2            =   4.5051566261950E-07
(PID.TID 0000.0001) %MON dynstat_wvel_max             =   1.8430922676548E-04
(PID.TID 0000.0001) %MON dynstat_wvel_min             =  -1.8856366776323E-04
(PID.TID 0000.0001) %MON dynstat_wvel_mean            =   6.7017086482648E-09
(PID.TID 0000.0001) %MON dynstat_wvel_sd              =   3.3698211126996E-05
(PID.TID 0000.0001) %MON dynstat_wvel_del2            =   1.6378925787691E-07
(PID.TID 0000.0001) %MON dynstat_theta_max            =   1.2000000000000E+00
(PID.TID 0000.0001) %MON dynstat_theta_min            =  -1.0000000000000E+00
(PID.TID 0000.0001) %MON dynstat_theta_mean           =   5.6907840732711E-01
(PID.TID 0000.0001) %MON dynstat_theta_sd             =   8.6857068242214E-01
(PID.TID 0000.0001) %MON dynstat_theta_del2           =   1.2205145528152E-06
(PID.TID 0000.0001) %MON dynstat_salt_max             =   3.4700000000000E+01
(PID.TID 0000.0001) %MON dynstat_salt_min             =   3.4000000000000E+01
(PID.TID 0000.0001) %MON dynstat_salt_mean            =   3.4499245503420E+01
(PID.TID 0000.0001) %MON dynstat_salt_sd              =   2.7636163445590E-01
(PID.TID 0000.0001) %MON dynstat_salt_del2            =   4.0449039392766E-07
(PID.TID 0000.0001) %MON advcfl_uvel_max              =   3.1348342167613E-04
(PID.TID 0000.0001) %MON advcfl_vvel_max              =   4.1622795200080E-04
(PID.TID 0000.0001) %MON advcfl_wvel_max              =   9.4281833881617E-04
(PID.TID 0000.0001) %MON advcfl_W_hf_max              =   9.4281833881617E-04
(PID.TID 0000.0001) %MON pe_b_mean                    =  -8.3139721418001E-01
(PID.TID 0000.0001) %MON ke_max                       =   8.7127824088990E-06
(PID.TID 0000.0001) %MON ke_mean                      =   1.7284834507878E-08
(PID.TID 0000.0001) %MON ke_vol                       =   4.2725358454383E+12
(PID.TID 0000.0001) // =======================================================
(PID.TID 0000.0001) // End MONITOR dynamic field statistics
(PID.TID 0000.0001) // =======================================================
(PID.TID 0000.0001) // =======================================================
(PID.TID 0000.0001) // Begin OBCS MONITOR field statistics
(PID.TID 0000.0001) // =======================================================
(PID.TID 0000.0001) %MON obc_N_vVel_max               =   1.4659925519290E-05
(PID.TID 0000.0001) %MON obc_N_vVel_min               =   1.4659925519290E-05
(PID.TID 0000.0001) %MON obc_N_vVel_mean              =   1.4659925519290E-05
(PID.TID 0000.0001) %MON obc_N_vVel_sd                =  -1.1761474334738E-23
(PID.TID 0000.0001) %MON obc_N_vVel_Int               =   9.6755508427316E+02
(PID.TID 0000.0001) // =======================================================
(PID.TID 0000.0001) // End OBCS MONITOR field statistics
(PID.TID 0000.0001) // =======================================================
 cg2d: Sum(rhs),rhsMax =   4.51829983975739E+00  2.99877915115062E+02
(PID.TID 0000.0001)      cg2d_init_res =   7.09927640036227E-06
(PID.TID 0000.0001)      cg2d_iters(min,last) =      -1      75
(PID.TID 0000.0001)      cg2d_last_res =   9.30751985385865E-12
(PID.TID 0000.0001) // =======================================================
(PID.TID 0000.0001) // Begin MONITOR dynamic field statistics
(PID.TID 0000.0001) // =======================================================
(PID.TID 0000.0001) %MON time_tsnumber                =                   310
(PID.TID 0000.0001) %MON time_secondsf                =   3.1000000000000E+04
(PID.TID 0000.0001) %MON dynstat_eta_max              =   5.7974302314524E+00
(PID.TID 0000.0001) %MON dynstat_eta_min              =  -1.4196056253167E+01
(PID.TID 0000.0001) %MON dynstat_eta_mean             =  -2.5091450663170E+00
(PID.TID 0000.0001) %MON dynstat_eta_sd               =   4.9517378526002E+00
(PID.TID 0000.0001) %MON dynstat_eta_del2             =   2.0714038605213E-01
(PID.TID 0000.0001) %MON dynstat_uvel_max             =   2.0523394118914E-03
(PID.TID 0000.0001) %MON dynstat_uvel_min             =  -3.1451856014478E-03
(PID.TID 0000.0001) %MON dynstat_uvel_mean            =  -1.1756944854761E-07
(PID.TID 0000.0001) %MON dynstat_uvel_sd              =   1.1919498940790E-04
(PID.TID 0000.0001) %MON dynstat_uvel_del2            =   3.1622653593203E-07
(PID.TID 0000.0001) %MON dynstat_vvel_max             =   4.1583543015360E-03
(PID.TID 0000.0001) %MON dynstat_vvel_min             =  -3.0059735401000E-03
(PID.TID 0000.0001) %MON dynstat_vvel_mean            =   1.4926163841724E-05
(PID.TID 0000.0001) %MON dynstat_vvel_sd              =   1.4335529235956E-04
(PID.TID 0000.0001) %MON dynstat_vvel_del2            =   4.4956504569331E-07
(PID.TID 0000.0001) %MON dynstat_wvel_max             =   1.8384682630827E-04
(PID.TID 0000.0001) %MON dynstat_wvel_min             =  -1.8703360440547E-04
(PID.TID 0000.0001) %MON dynstat_wvel_mean            =   6.7407506909881E-09
(PID.TID 0000.0001) %MON dynstat_wvel_sd              =   3.3625604226435E-05
(PID.TID 0000.0001) %MON dynstat_wvel_del2            =   1.6331515676592E-07
(PID.TID 0000.0001) %MON dynstat_theta_max            =   1.2000000000000E+00
(PID.TID 0000.0001) %MON dynstat_theta_min            =  -1.0000000000000E+00
(PID.TID 0000.0001) %MON dynstat_theta_mean           =   5.6907814606487E-01
(PID.TID 0000.0001) %MON dynstat_theta_sd             =   8.6857054699834E-01
(PID.TID 0000.0001) %MON dynstat_theta_del2           =   1.2174832385738E-06
(PID.TID 0000.0001) %MON dynstat_salt_max             =   3.4700000000000E+01
(PID.TID 0000.0001) %MON dynstat_salt_min             =   3.4000000000000E+01
(PID.TID 0000.0001) %MON dynstat_salt_mean            =   3.4499245398824E+01
(PID.TID 0000.0001) %MON dynstat_salt_sd              =   2.7636158548695E-01
(PID.TID 0000.0001) %MON dynstat_salt_del2            =   4.0367589722697E-07
(PID.TID 0000.0001) %MON advcfl_uvel_max              =   3.1451856014478E-04
(PID.TID 0000.0001) %MON advcfl_vvel_max              =   4.1583543015360E-04
(PID.TID 0000.0001) %MON advcfl_wvel_max              =   9.3516802202734E-04
(PID.TID 0000.0001) %MON advcfl_W_hf_max              =   9.3516802202734E-04
(PID.TID 0000.0001) %MON pe_b_mean                    =  -8.3140128605897E-01
(PID.TID 0000.0001) %MON ke_max                       =   8.7240465664054E-06
(PID.TID 0000.0001) %MON ke_mean                      =   1.7348012154250E-08
(PID.TID 0000.0001) %MON ke_vol                       =   4.2725357619421E+12
(PID.TID 0000.0001) // =======================================================
(PID.TID 0000.0001) // End MONITOR dynamic field statistics
(PID.TID 0000.0001) // =======================================================
(PID.TID 0000.0001) // =======================================================
(PID.TID 0000.0001) // Begin OBCS MONITOR field statistics
(PID.TID 0000.0001) // =======================================================
(PID.TID 0000.0001) %MON obc_N_vVel_max               =   1.4682090048575E-05
(PID.TID 0000.0001) %MON obc_N_vVel_min               =   1.4682090048575E-05
(PID.TID 0000.0001) %MON obc_N_vVel_mean              =   1.4682090048575E-05
(PID.TID 0000.0001) %MON obc_N_vVel_sd                =   2.1085767219792E-12
(PID.TID 0000.0001) %MON obc_N_vVel_Int               =   9.6901794320595E+02
(PID.TID 0000.0001) // =======================================================
(PID.TID 0000.0001) // End OBCS MONITOR field statistics
(PID.TID 0000.0001) // =======================================================
 cg2d: Sum(rhs),rhsMax =   4.51832407984063E+00  2.99877991909394E+02
(PID.TID 0000.0001)      cg2d_init_res =   7.08765390367549E-06
(PID.TID 0000.0001)      cg2d_iters(min,last) =      -1      75
(PID.TID 0000.0001)      cg2d_last_res =   9.37911794354035E-12
(PID.TID 0000.0001) // =======================================================
(PID.TID 0000.0001) // Begin MONITOR dynamic field statistics
(PID.TID 0000.0001) // =======================================================
(PID.TID 0000.0001) %MON time_tsnumber                =                   311
(PID.TID 0000.0001) %MON time_secondsf                =   3.1100000000000E+04
(PID.TID 0000.0001) %MON dynstat_eta_max              =   5.7973965901287E+00
(PID.TID 0000.0001) %MON dynstat_eta_min              =  -1.4196073192178E+01
(PID.TID 0000.0001) %MON dynstat_eta_mean             =  -2.5091591701083E+00
(PID.TID 0000.0001) %MON dynstat_eta_sd               =   4.9517424924558E+00
(PID.TID 0000.0001) %MON dynstat_eta_del2             =   2.0714038860222E-01
(PID.TID 0000.0001) %MON dynstat_uvel_max             =   2.0426343299427E-03
(PID.TID 0000.0001) %MON dynstat_uvel_min             =  -3.1554660202932E-03
(PID.TID 0000.0001) %MON dynstat_uvel_mean            =  -1.1756379314379E-07
(PID.TID 0000.0001) %MON dynstat_uvel_sd              =   1.1959327182558E-04
(PID.TID 0000.0001) %MON dynstat_uvel_del2            =   3.1589460962696E-07
(PID.TID 0000.0001) %MON dynstat_vvel_max             =   4.1543241048760E-03
(PID.TID 0000.0001) %MON dynstat_vvel_min             =  -3.0004489358166E-03
(PID.TID 0000.0001) %MON dynstat_vvel_mean            =   1.4952264448856E-05
(PID.TID 0000.0001) %MON dynstat_vvel_sd              =   1.4347303755983E-04
(PID.TID 0000.0001) %MON dynstat_vvel_del2            =   4.4868107443773E-07
(PID.TID 0000.0001) %MON dynstat_wvel_max             =   1.8338113772320E-04
(PID.TID 0000.0001) %MON dynstat_wvel_min             =  -1.8260025053896E-04
(PID.TID 0000.0001) %MON dynstat_wvel_mean            =   6.7734387960841E-09
(PID.TID 0000.0001) %MON dynstat_wvel_sd              =   3.3558310921174E-05
(PID.TID 0000.0001) %MON dynstat_wvel_del2            =   1.6292089318242E-07
(PID.TID 0000.0001) %MON dynstat_theta_max            =   1.2000000000000E+00
(PID.TID 0000.0001) %MON dynstat_theta_min            =  -1.0000000000000E+00
(PID.TID 0000.0001) %MON dynstat_theta_mean           =   5.6907788467947E-01
(PID.TID 0000.0001) %MON dynstat_theta_sd             =   8.6857041143135E-01
(PID.TID 0000.0001) %MON dynstat_theta_del2           =   1.2144180276862E-06
(PID.TID 0000.0001) %MON dynstat_salt_max             =   3.4700000000000E+01
(PID.TID 0000.0001) %MON dynstat_salt_min             =   3.4000000000000E+01
(PID.TID 0000.0001) %MON dynstat_salt_mean            =   3.4499245294178E+01
(PID.TID 0000.0001) %MON dynstat_salt_sd              =   2.7636153646624E-01
(PID.TID 0000.0001) %MON dynstat_salt_del2            =   4.0285181264500E-07
(PID.TID 0000.0001) %MON advcfl_uvel_max              =   3.1554660202932E-04
(PID.TID 0000.0001) %MON advcfl_vvel_max              =   4.1543241048760E-04
(PID.TID 0000.0001) %MON advcfl_wvel_max              =   9.1690568861602E-04
(PID.TID 0000.0001) %MON advcfl_W_hf_max              =   9.1690568861602E-04
(PID.TID 0000.0001) %MON pe_b_mean                    =  -8.3140536407292E-01
(PID.TID 0000.0001) %MON ke_max                       =   8.7349925262742E-06
(PID.TID 0000.0001) %MON ke_mean                      =   1.7411894847495E-08
(PID.TID 0000.0001) %MON ke_vol                       =   4.2725356783061E+12
(PID.TID 0000.0001) // =======================================================
(PID.TID 0000.0001) // End MONITOR dynamic field statistics
(PID.TID 0000.0001) // =======================================================
(PID.TID 0000.0001) // =======================================================
(PID.TID 0000.0001) // Begin OBCS MONITOR field statistics
(PID.TID 0000.0001) // =======================================================
(PID.TID 0000.0001) %MON obc_N_vVel_max               =   1.4704373187049E-05
(PID.TID 0000.0001) %MON obc_N_vVel_min               =   1.4704373187049E-05
(PID.TID 0000.0001) %MON obc_N_vVel_mean              =   1.4704373187049E-05
(PID.TID 0000.0001) %MON obc_N_vVel_sd                =   8.1980744550128E-13
(PID.TID 0000.0001) %MON obc_N_vVel_Int               =   9.7048863034524E+02
(PID.TID 0000.0001) // =======================================================
(PID.TID 0000.0001) // End OBCS MONITOR field statistics
(PID.TID 0000.0001) // =======================================================
 cg2d: Sum(rhs),rhsMax =   4.51834836006662E+00  2.99878068793308E+02
(PID.TID 0000.0001)      cg2d_init_res =   7.07616500177132E-06
(PID.TID 0000.0001)      cg2d_iters(min,last) =      -1      75
(PID.TID 0000.0001)      cg2d_last_res =   9.44961746319237E-12
(PID.TID 0000.0001) // =======================================================
(PID.TID 0000.0001) // Begin MONITOR dynamic field statistics
(PID.TID 0000.0001) // =======================================================
(PID.TID 0000.0001) %MON time_tsnumber                =                   312
(PID.TID 0000.0001) %MON time_secondsf                =   3.1200000000000E+04
(PID.TID 0000.0001) %MON dynstat_eta_max              =   5.7973629492945E+00
(PID.TID 0000.0001) %MON dynstat_eta_min              =  -1.4196090180995E+01
(PID.TID 0000.0001) %MON dynstat_eta_mean             =  -2.5091732969485E+00
(PID.TID 0000.0001) %MON dynstat_eta_sd               =   4.9517471391847E+00
(PID.TID 0000.0001) %MON dynstat_eta_del2             =   2.0714039118077E-01
(PID.TID 0000.0001) %MON dynstat_uvel_max             =   2.0328822904911E-03
(PID.TID 0000.0001) %MON dynstat_uvel_min             =  -3.1656751110538E-03
(PID.TID 0000.0001) %MON dynstat_uvel_mean            =  -1.1751931484942E-07
(PID.TID 0000.0001) %MON dynstat_uvel_sd              =   1.1999273601445E-04
(PID.TID 0000.0001) %MON dynstat_uvel_del2            =   3.1556784547611E-07
(PID.TID 0000.0001) %MON dynstat_vvel_max             =   4.1501885495503E-03
(PID.TID 0000.0001) %MON dynstat_vvel_min             =  -2.9948619733959E-03
(PID.TID 0000.0001) %MON dynstat_vvel_mean            =   1.4977229331644E-05
(PID.TID 0000.0001) %MON dynstat_vvel_sd              =   1.4359339837935E-04
(PID.TID 0000.0001) %MON dynstat_vvel_del2            =   4.4785834455839E-07
(PID.TID 0000.0001) %MON dynstat_wvel_max             =   1.8291220657714E-04
(PID.TID 0000.0001) %MON dynstat_wvel_min             =  -1.7532739942129E-04
(PID.TID 0000.0001) %MON dynstat_wvel_mean            =   6.7991424041813E-09
(PID.TID 0000.0001) %MON dynstat_wvel_sd              =   3.3495979960899E-05
(PID.TID 0000.0001) %MON dynstat_wvel_del2            =   1.6259938821917E-07
(PID.TID 0000.0001) %MON dynstat_theta_max            =   1.2000000000000E+00
(PID.TID 0000.0001) %MON dynstat_theta_min            =  -1.0000000000000E+00
(PID.TID 0000.0001) %MON dynstat_theta_mean           =   5.6907762316525E-01
(PID.TID 0000.0001) %MON dynstat_theta_sd             =   8.6857027575881E-01
(PID.TID 0000.0001) %MON dynstat_theta_del2           =   1.2113279206860E-06
(PID.TID 0000.0001) %MON dynstat_salt_max             =   3.4700000000000E+01
(PID.TID 0000.0001) %MON dynstat_salt_min             =   3.4000000000000E+01
(PID.TID 0000.0001) %MON dynstat_salt_mean            =   3.4499245189479E+01
(PID.TID 0000.0001) %MON dynstat_salt_sd              =   2.7636148740557E-01
(PID.TID 0000.0001) %MON dynstat_salt_del2            =   4.0202098025924E-07
(PID.TID 0000.0001) %MON advcfl_uvel_max              =   3.1656751110538E-04
(PID.TID 0000.0001) %MON advcfl_vvel_max              =   4.1501885495503E-04
(PID.TID 0000.0001) %MON advcfl_wvel_max              =   9.1456103288572E-04
(PID.TID 0000.0001) %MON advcfl_W_hf_max              =   9.1456103288572E-04
(PID.TID 0000.0001) %MON pe_b_mean                    =  -8.3140944787838E-01
(PID.TID 0000.0001) %MON ke_max                       =   8.7456177609530E-06
(PID.TID 0000.0001) %MON ke_mean                      =   1.7476445153273E-08
(PID.TID 0000.0001) %MON ke_vol                       =   4.2725355945296E+12
(PID.TID 0000.0001) // =======================================================
(PID.TID 0000.0001) // End MONITOR dynamic field statistics
(PID.TID 0000.0001) // =======================================================
(PID.TID 0000.0001) // =======================================================
(PID.TID 0000.0001) // Begin OBCS MONITOR field statistics
(PID.TID 0000.0001) // =======================================================
(PID.TID 0000.0001) %MON obc_N_vVel_max               =   1.4726157059815E-05
(PID.TID 0000.0001) %MON obc_N_vVel_min               =   1.4726157059815E-05
(PID.TID 0000.0001) %MON obc_N_vVel_mean              =   1.4726157059815E-05
(PID.TID 0000.0001) %MON obc_N_vVel_sd                =   3.3877914633539E-12
(PID.TID 0000.0001) %MON obc_N_vVel_Int               =   9.7192636594777E+02
(PID.TID 0000.0001) // =======================================================
(PID.TID 0000.0001) // End OBCS MONITOR field statistics
(PID.TID 0000.0001) // =======================================================
 cg2d: Sum(rhs),rhsMax =   4.51837267855404E+00  2.99878145742665E+02
(PID.TID 0000.0001)      cg2d_init_res =   7.06478712939110E-06
(PID.TID 0000.0001)      cg2d_iters(min,last) =      -1      75
(PID.TID 0000.0001)      cg2d_last_res =   9.49819262589988E-12
(PID.TID 0000.0001) // =======================================================
(PID.TID 0000.0001) // Begin MONITOR dynamic field statistics
(PID.TID 0000.0001) // =======================================================
(PID.TID 0000.0001) %MON time_tsnumber                =                   313
(PID.TID 0000.0001) %MON time_secondsf                =   3.1300000000000E+04
(PID.TID 0000.0001) %MON dynstat_eta_max              =   5.7973293098101E+00
(PID.TID 0000.0001) %MON dynstat_eta_min              =  -1.4196107215341E+01
(PID.TID 0000.0001) %MON dynstat_eta_mean             =  -2.5091874455909E+00
(PID.TID 0000.0001) %MON dynstat_eta_sd               =   4.9517517918774E+00
(PID.TID 0000.0001) %MON dynstat_eta_del2             =   2.0714039378784E-01
(PID.TID 0000.0001) %MON dynstat_uvel_max             =   2.0230839182052E-03
(PID.TID 0000.0001) %MON dynstat_uvel_min             =  -3.1758125174691E-03
(PID.TID 0000.0001) %MON dynstat_uvel_mean            =  -1.1743869112667E-07
(PID.TID 0000.0001) %MON dynstat_uvel_sd              =   1.2039335462445E-04
(PID.TID 0000.0001) %MON dynstat_uvel_del2            =   3.1524618435104E-07
(PID.TID 0000.0001) %MON dynstat_vvel_max             =   4.1459473387189E-03
(PID.TID 0000.0001) %MON dynstat_vvel_min             =  -2.9892140380445E-03
(PID.TID 0000.0001) %MON dynstat_vvel_mean            =   1.5000417976711E-05
(PID.TID 0000.0001) %MON dynstat_vvel_sd              =   1.4371589466089E-04
(PID.TID 0000.0001) %MON dynstat_vvel_del2            =   4.4708431848918E-07
(PID.TID 0000.0001) %MON dynstat_wvel_max             =   1.8244007760775E-04
(PID.TID 0000.0001) %MON dynstat_wvel_min             =  -1.6532615761289E-04
(PID.TID 0000.0001) %MON dynstat_wvel_mean            =   6.8174462434243E-09
(PID.TID 0000.0001) %MON dynstat_wvel_sd              =   3.3437655931310E-05
(PID.TID 0000.0001) %MON dynstat_wvel_del2            =   1.6233447119088E-07
(PID.TID 0000.0001) %MON dynstat_theta_max            =   1.2000000000000E+00
(PID.TID 0000.0001) %MON dynstat_theta_min            =  -1.0000000000000E+00
(PID.TID 0000.0001) %MON dynstat_theta_mean           =   5.6907736151577E-01
(PID.TID 0000.0001) %MON dynstat_theta_sd             =   8.6857014000335E-01
(PID.TID 0000.0001) %MON dynstat_theta_del2           =   1.2082290341873E-06
(PID.TID 0000.0001) %MON dynstat_salt_max             =   3.4700000000000E+01
(PID.TID 0000.0001) %MON dynstat_salt_min             =   3.4000000000000E+01
(PID.TID 0000.0001) %MON dynstat_salt_mean            =   3.4499245084726E+01
(PID.TID 0000.0001) %MON dynstat_salt_sd              =   2.7636143831157E-01
(PID.TID 0000.0001) %MON dynstat_salt_del2            =   4.0118836486751E-07
(PID.TID 0000.0001) %MON advcfl_uvel_max              =   3.1758125174691E-04
(PID.TID 0000.0001) %MON advcfl_vvel_max              =   4.1459473387189E-04
(PID.TID 0000.0001) %MON advcfl_wvel_max              =   9.1220038803874E-04
(PID.TID 0000.0001) %MON advcfl_W_hf_max              =   9.1220038803874E-04
(PID.TID 0000.0001) %MON pe_b_mean                    =  -8.3141353697382E-01
(PID.TID 0000.0001) %MON ke_max                       =   8.7559200363965E-06
(PID.TID 0000.0001) %MON ke_mean                      =   1.7541583550594E-08
(PID.TID 0000.0001) %MON ke_vol                       =   4.2725355106161E+12
(PID.TID 0000.0001) // =======================================================
(PID.TID 0000.0001) // End MONITOR dynamic field statistics
(PID.TID 0000.0001) // =======================================================
(PID.TID 0000.0001) // =======================================================
(PID.TID 0000.0001) // Begin OBCS MONITOR field statistics
(PID.TID 0000.0001) // =======================================================
(PID.TID 0000.0001) %MON obc_N_vVel_max               =   1.4746862041434E-05
(PID.TID 0000.0001) %MON obc_N_vVel_min               =   1.4746862041434E-05
(PID.TID 0000.0001) %MON obc_N_vVel_mean              =   1.4746862041434E-05
(PID.TID 0000.0001) %MON obc_N_vVel_sd                =  -5.9712100468672E-24
(PID.TID 0000.0001) %MON obc_N_vVel_Int               =   9.7329289473463E+02
(PID.TID 0000.0001) // =======================================================
(PID.TID 0000.0001) // End OBCS MONITOR field statistics
(PID.TID 0000.0001) // =======================================================
 cg2d: Sum(rhs),rhsMax =   4.51839703235839E+00  2.99878222735404E+02
(PID.TID 0000.0001)      cg2d_init_res =   7.05336060376477E-06
(PID.TID 0000.0001)      cg2d_iters(min,last) =      -1      75
(PID.TID 0000.0001)      cg2d_last_res =   9.51348633774576E-12
(PID.TID 0000.0001) // =======================================================
(PID.TID 0000.0001) // Begin MONITOR dynamic field statistics
(PID.TID 0000.0001) // =======================================================
(PID.TID 0000.0001) %MON time_tsnumber                =                   314
(PID.TID 0000.0001) %MON time_secondsf                =   3.1400000000000E+04
(PID.TID 0000.0001) %MON dynstat_eta_max              =   5.7972956729945E+00
(PID.TID 0000.0001) %MON dynstat_eta_min              =  -1.4196124289859E+01
(PID.TID 0000.0001) %MON dynstat_eta_mean             =  -2.5092016142158E+00
(PID.TID 0000.0001) %MON dynstat_eta_sd               =   4.9517564495061E+00
(PID.TID 0000.0001) %MON dynstat_eta_del2             =   2.0714039642415E-01
(PID.TID 0000.0001) %MON dynstat_uvel_max             =   2.0132398374706E-03
(PID.TID 0000.0001) %MON dynstat_uvel_min             =  -3.1858778894523E-03
(PID.TID 0000.0001) %MON dynstat_uvel_mean            =  -1.1732564084337E-07
(PID.TID 0000.0001) %MON dynstat_uvel_sd              =   1.2079510066483E-04
(PID.TID 0000.0001) %MON dynstat_uvel_del2            =   3.1492957158718E-07
(PID.TID 0000.0001) %MON dynstat_vvel_max             =   4.1416002773342E-03
(PID.TID 0000.0001) %MON dynstat_vvel_min             =  -2.9835064153083E-03
(PID.TID 0000.0001) %MON dynstat_vvel_mean            =   1.5021263622803E-05
(PID.TID 0000.0001) %MON dynstat_vvel_sd              =   1.4383981705725E-04
(PID.TID 0000.0001) %MON dynstat_vvel_del2            =   4.4634111935959E-07
(PID.TID 0000.0001) %MON dynstat_wvel_max             =   1.8196479498848E-04
(PID.TID 0000.0001) %MON dynstat_wvel_min             =  -1.6109428460397E-04
(PID.TID 0000.0001) %MON dynstat_wvel_mean            =   6.8281485149101E-09
(PID.TID 0000.0001) %MON dynstat_wvel_sd              =   3.3381917621849E-05
(PID.TID 0000.0001) %MON dynstat_wvel_del2            =   1.6210322223967E-07
(PID.TID 0000.0001) %MON dynstat_theta_max            =   1.2000000000000E+00
(PID.TID 0000.0001) %MON dynstat_theta_min            =  -1.0000000000000E+00
(PID.TID 0000.0001) %MON dynstat_theta_mean           =   5.6907709972580E-01
(PID.TID 0000.0001) %MON dynstat_theta_sd             =   8.6857000421566E-01
(PID.TID 0000.0001) %MON dynstat_theta_del2           =   1.2051423954645E-06
(PID.TID 0000.0001) %MON dynstat_salt_max             =   3.4700000000000E+01
(PID.TID 0000.0001) %MON dynstat_salt_min             =   3.4000000000000E+01
(PID.TID 0000.0001) %MON dynstat_salt_mean            =   3.4499244979916E+01
(PID.TID 0000.0001) %MON dynstat_salt_sd              =   2.7636138920031E-01
(PID.TID 0000.0001) %MON dynstat_salt_del2            =   4.0036042411258E-07
(PID.TID 0000.0001) %MON advcfl_uvel_max              =   3.1858778894523E-04
(PID.TID 0000.0001) %MON advcfl_vvel_max              =   4.1416002773342E-04
(PID.TID 0000.0001) %MON advcfl_wvel_max              =   9.0982397494242E-04
(PID.TID 0000.0001) %MON advcfl_W_hf_max              =   9.0982397494242E-04
(PID.TID 0000.0001) %MON pe_b_mean                    =  -8.3141763072565E-01
(PID.TID 0000.0001) %MON ke_max                       =   8.7658974679623E-06
(PID.TID 0000.0001) %MON ke_mean                      =   1.7607198389139E-08
(PID.TID 0000.0001) %MON ke_vol                       =   4.2725354265732E+12
(PID.TID 0000.0001) // =======================================================
(PID.TID 0000.0001) // End MONITOR dynamic field statistics
(PID.TID 0000.0001) // =======================================================
(PID.TID 0000.0001) // =======================================================
(PID.TID 0000.0001) // Begin OBCS MONITOR field statistics
(PID.TID 0000.0001) // =======================================================
(PID.TID 0000.0001) %MON obc_N_vVel_max               =   1.4765961684989E-05
(PID.TID 0000.0001) %MON obc_N_vVel_min               =   1.4765961684988E-05
(PID.TID 0000.0001) %MON obc_N_vVel_mean              =   1.4765961684989E-05
(PID.TID 0000.0001) %MON obc_N_vVel_sd                =  -9.2540831029370E-24
(PID.TID 0000.0001) %MON obc_N_vVel_Int               =   9.7455347120925E+02
(PID.TID 0000.0001) // =======================================================
(PID.TID 0000.0001) // End OBCS MONITOR field statistics
(PID.TID 0000.0001) // =======================================================
 cg2d: Sum(rhs),rhsMax =   4.51842141758264E+00  2.99878299752039E+02
(PID.TID 0000.0001)      cg2d_init_res =   7.04165277051461E-06
(PID.TID 0000.0001)      cg2d_iters(min,last) =      -1      75
(PID.TID 0000.0001)      cg2d_last_res =   9.50343428337808E-12
(PID.TID 0000.0001) // =======================================================
(PID.TID 0000.0001) // Begin MONITOR dynamic field statistics
(PID.TID 0000.0001) // =======================================================
(PID.TID 0000.0001) %MON time_tsnumber                =                   315
(PID.TID 0000.0001) %MON time_secondsf                =   3.1500000000000E+04
(PID.TID 0000.0001) %MON dynstat_eta_max              =   5.7972620404862E+00
(PID.TID 0000.0001) %MON dynstat_eta_min              =  -1.4196141398306E+01
(PID.TID 0000.0001) %MON dynstat_eta_mean             =  -2.5092158004961E+00
(PID.TID 0000.0001) %MON dynstat_eta_sd               =   4.9517611109369E+00
(PID.TID 0000.0001) %MON dynstat_eta_del2             =   2.0714039908980E-01
(PID.TID 0000.0001) %MON dynstat_uvel_max             =   2.0051413808163E-03
(PID.TID 0000.0001) %MON dynstat_uvel_min             =  -3.1958708827306E-03
(PID.TID 0000.0001) %MON dynstat_uvel_mean            =  -1.1718479790891E-07
(PID.TID 0000.0001) %MON dynstat_uvel_sd              =   1.2119794766087E-04
(PID.TID 0000.0001) %MON dynstat_uvel_del2            =   3.1461795808698E-07
(PID.TID 0000.0001) %MON dynstat_vvel_max             =   4.1371472873468E-03
(PID.TID 0000.0001) %MON dynstat_vvel_min             =  -2.9777402757043E-03
(PID.TID 0000.0001) %MON dynstat_vvel_mean            =   1.5039286245010E-05
(PID.TID 0000.0001) %MON dynstat_vvel_sd              =   1.4396432363476E-04
(PID.TID 0000.0001) %MON dynstat_vvel_del2            =   4.4560797921937E-07
(PID.TID 0000.0001) %MON dynstat_wvel_max             =   1.8148640229521E-04
(PID.TID 0000.0001) %MON dynstat_wvel_min             =  -1.5580822432364E-04
(PID.TID 0000.0001) %MON dynstat_wvel_mean            =   6.8312594610673E-09
(PID.TID 0000.0001) %MON dynstat_wvel_sd              =   3.3327073755984E-05
(PID.TID 0000.0001) %MON dynstat_wvel_del2            =   1.6187914148363E-07
(PID.TID 0000.0001) %MON dynstat_theta_max            =   1.2000000000000E+00
(PID.TID 0000.0001) %MON dynstat_theta_min            =  -1.0000000000000E+00
(PID.TID 0000.0001) %MON dynstat_theta_mean           =   5.6907683779047E-01
(PID.TID 0000.0001) %MON dynstat_theta_sd             =   8.6856986838975E-01
(PID.TID 0000.0001) %MON dynstat_theta_del2           =   1.2020909341429E-06
(PID.TID 0000.0001) %MON dynstat_salt_max             =   3.4700000000000E+01
(PID.TID 0000.0001) %MON dynstat_salt_min             =   3.4000000000000E+01
(PID.TID 0000.0001) %MON dynstat_salt_mean            =   3.4499244875047E+01
(PID.TID 0000.0001) %MON dynstat_salt_sd              =   2.7636134006957E-01
(PID.TID 0000.0001) %MON dynstat_salt_del2            =   3.9954417856697E-07
(PID.TID 0000.0001) %MON advcfl_uvel_max              =   3.1958708827306E-04
(PID.TID 0000.0001) %MON advcfl_vvel_max              =   4.1371472873468E-04
(PID.TID 0000.0001) %MON advcfl_wvel_max              =   9.0743201147607E-04
(PID.TID 0000.0001) %MON advcfl_W_hf_max              =   9.0743201147607E-04
(PID.TID 0000.0001) %MON pe_b_mean                    =  -8.3142172838749E-01
(PID.TID 0000.0001) %MON ke_max                       =   8.7755485657370E-06
(PID.TID 0000.0001) %MON ke_mean                      =   1.7673159876037E-08
(PID.TID 0000.0001) %MON ke_vol                       =   4.2725353424116E+12
(PID.TID 0000.0001) // =======================================================
(PID.TID 0000.0001) // End MONITOR dynamic field statistics
(PID.TID 0000.0001) // =======================================================
(PID.TID 0000.0001) // =======================================================
(PID.TID 0000.0001) // Begin OBCS MONITOR field statistics
(PID.TID 0000.0001) // =======================================================
(PID.TID 0000.0001) %MON obc_N_vVel_max               =   1.4782995050812E-05
(PID.TID 0000.0001) %MON obc_N_vVel_min               =   1.4782995050812E-05
(PID.TID 0000.0001) %MON obc_N_vVel_mean              =   1.4782995050812E-05
(PID.TID 0000.0001) %MON obc_N_vVel_sd                =  -8.0133121841075E-25
(PID.TID 0000.0001) %MON obc_N_vVel_Int               =   9.7567767335357E+02
(PID.TID 0000.0001) // =======================================================
(PID.TID 0000.0001) // End OBCS MONITOR field statistics
(PID.TID 0000.0001) // =======================================================
 cg2d: Sum(rhs),rhsMax =   4.51844582948679E+00  2.99878376776165E+02
(PID.TID 0000.0001)      cg2d_init_res =   7.02939782105344E-06
(PID.TID 0000.0001)      cg2d_iters(min,last) =      -1      75
(PID.TID 0000.0001)      cg2d_last_res =   9.47826010577966E-12
(PID.TID 0000.0001) // =======================================================
(PID.TID 0000.0001) // Begin MONITOR dynamic field statistics
(PID.TID 0000.0001) // =======================================================
(PID.TID 0000.0001) %MON time_tsnumber                =                   316
(PID.TID 0000.0001) %MON time_secondsf                =   3.1600000000000E+04
(PID.TID 0000.0001) %MON dynstat_eta_max              =   5.7972284141353E+00
(PID.TID 0000.0001) %MON dynstat_eta_min              =  -1.4196158533740E+01
(PID.TID 0000.0001) %MON dynstat_eta_mean             =  -2.5092300016621E+00
(PID.TID 0000.0001) %MON dynstat_eta_sd               =   4.9517657749569E+00
(PID.TID 0000.0001) %MON dynstat_eta_del2             =   2.0714040178503E-01
(PID.TID 0000.0001) %MON dynstat_uvel_max             =   2.0082197680547E-03
(PID.TID 0000.0001) %MON dynstat_uvel_min             =  -3.2057911584791E-03
(PID.TID 0000.0001) %MON dynstat_uvel_mean            =  -1.1702151676112E-07
(PID.TID 0000.0001) %MON dynstat_uvel_sd              =   1.2160186972543E-04
(PID.TID 0000.0001) %MON dynstat_uvel_del2            =   3.1431130086272E-07
(PID.TID 0000.0001) %MON dynstat_vvel_max             =   4.1325884200276E-03
(PID.TID 0000.0001) %MON dynstat_vvel_min             =  -2.9719166628244E-03
(PID.TID 0000.0001) %MON dynstat_vvel_mean            =   1.5054102668300E-05
(PID.TID 0000.0001) %MON dynstat_vvel_sd              =   1.4408855086275E-04
(PID.TID 0000.0001) %MON dynstat_vvel_del2            =   4.4486400376635E-07
(PID.TID 0000.0001) %MON dynstat_wvel_max             =   1.8100494229629E-04
(PID.TID 0000.0001) %MON dynstat_wvel_min             =  -1.5321012732071E-04
(PID.TID 0000.0001) %MON dynstat_wvel_mean            =   6.8269925799174E-09
(PID.TID 0000.0001) %MON dynstat_wvel_sd              =   3.3271388744478E-05
(PID.TID 0000.0001) %MON dynstat_wvel_del2            =   1.6163568686455E-07
(PID.TID 0000.0001) %MON dynstat_theta_max            =   1.2000000000000E+00
(PID.TID 0000.0001) %MON dynstat_theta_min            =  -1.0000000000000E+00
(PID.TID 0000.0001) %MON dynstat_theta_mean           =   5.6907657570301E-01
(PID.TID 0000.0001) %MON dynstat_theta_sd             =   8.6856973249851E-01
(PID.TID 0000.0001) %MON dynstat_theta_del2           =   1.1990969581976E-06
(PID.TID 0000.0001) %MON dynstat_salt_max             =   3.4700000000000E+01
(PID.TID 0000.0001) %MON dynstat_salt_min             =   3.4000000000000E+01
(PID.TID 0000.0001) %MON dynstat_salt_mean            =   3.4499244770117E+01
(PID.TID 0000.0001) %MON dynstat_salt_sd              =   2.7636129091043E-01
(PID.TID 0000.0001) %MON dynstat_salt_del2            =   3.9874643302271E-07
(PID.TID 0000.0001) %MON advcfl_uvel_max              =   3.2057911584791E-04
(PID.TID 0000.0001) %MON advcfl_vvel_max              =   4.1325884200276E-04
(PID.TID 0000.0001) %MON advcfl_wvel_max              =   9.0502471148143E-04
(PID.TID 0000.0001) %MON advcfl_W_hf_max              =   9.0502471148143E-04
(PID.TID 0000.0001) %MON pe_b_mean                    =  -8.3142582911663E-01
(PID.TID 0000.0001) %MON ke_max                       =   8.7848722702459E-06
(PID.TID 0000.0001) %MON ke_mean                      =   1.7739336159092E-08
(PID.TID 0000.0001) %MON ke_vol                       =   4.2725352581451E+12
(PID.TID 0000.0001) // =======================================================
(PID.TID 0000.0001) // End MONITOR dynamic field statistics
(PID.TID 0000.0001) // =======================================================
(PID.TID 0000.0001) // =======================================================
(PID.TID 0000.0001) // Begin OBCS MONITOR field statistics
(PID.TID 0000.0001) // =======================================================
(PID.TID 0000.0001) %MON obc_N_vVel_max               =   1.4797576891298E-05
(PID.TID 0000.0001) %MON obc_N_vVel_min               =   1.4797576891297E-05
(PID.TID 0000.0001) %MON obc_N_vVel_mean              =   1.4797576891297E-05
(PID.TID 0000.0001) %MON obc_N_vVel_sd                =   4.4902703071174E-12
(PID.TID 0000.0001) %MON obc_N_vVel_Int               =   9.7664007482562E+02
(PID.TID 0000.0001) // =======================================================
(PID.TID 0000.0001) // End OBCS MONITOR field statistics
(PID.TID 0000.0001) // =======================================================
 cg2d: Sum(rhs),rhsMax =   4.51847026272279E+00  2.99878453794472E+02
(PID.TID 0000.0001)      cg2d_init_res =   7.01637788915668E-06
(PID.TID 0000.0001)      cg2d_iters(min,last) =      -1      75
(PID.TID 0000.0001)      cg2d_last_res =   9.42935425696475E-12
(PID.TID 0000.0001) // =======================================================
(PID.TID 0000.0001) // Begin MONITOR dynamic field statistics
(PID.TID 0000.0001) // =======================================================
(PID.TID 0000.0001) %MON time_tsnumber                =                   317
(PID.TID 0000.0001) %MON time_secondsf                =   3.1700000000000E+04
(PID.TID 0000.0001) %MON dynstat_eta_max              =   5.7971947960605E+00
(PID.TID 0000.0001) %MON dynstat_eta_min              =  -1.4196175688743E+01
(PID.TID 0000.0001) %MON dynstat_eta_mean             =  -2.5092442146326E+00
(PID.TID 0000.0001) %MON dynstat_eta_sd               =   4.9517704403575E+00
(PID.TID 0000.0001) %MON dynstat_eta_del2             =   2.0714040451065E-01
(PID.TID 0000.0001) %MON dynstat_uvel_max             =   2.0112233092857E-03
(PID.TID 0000.0001) %MON dynstat_uvel_min             =  -3.2156383829982E-03
(PID.TID 0000.0001) %MON dynstat_uvel_mean            =  -1.1684165916410E-07
(PID.TID 0000.0001) %MON dynstat_uvel_sd              =   1.2200684163827E-04
(PID.TID 0000.0001) %MON dynstat_uvel_del2            =   3.1400956300669E-07
(PID.TID 0000.0001) %MON dynstat_vvel_max             =   4.1279238643153E-03
(PID.TID 0000.0001) %MON dynstat_vvel_min             =  -2.9660364852724E-03
(PID.TID 0000.0001) %MON dynstat_vvel_mean            =   1.5065433615757E-05
(PID.TID 0000.0001) %MON dynstat_vvel_sd              =   1.4421172563752E-04
(PID.TID 0000.0001) %MON dynstat_vvel_del2            =   4.4409088962929E-07
(PID.TID 0000.0001) %MON dynstat_wvel_max             =   1.8052045693490E-04
(PID.TID 0000.0001) %MON dynstat_wvel_min             =  -1.5972999814808E-04
(PID.TID 0000.0001) %MON dynstat_wvel_mean            =   6.8157573935548E-09
(PID.TID 0000.0001) %MON dynstat_wvel_sd              =   3.3213309264093E-05
(PID.TID 0000.0001) %MON dynstat_wvel_del2            =   1.6134970034187E-07
(PID.TID 0000.0001) %MON dynstat_theta_max            =   1.2000000000000E+00
(PID.TID 0000.0001) %MON dynstat_theta_min            =  -1.0000000000000E+00
(PID.TID 0000.0001) %MON dynstat_theta_mean           =   5.6907631345944E-01
(PID.TID 0000.0001) %MON dynstat_theta_sd             =   8.6856959655455E-01
(PID.TID 0000.0001) %MON dynstat_theta_del2           =   1.1961786530662E-06
(PID.TID 0000.0001) %MON dynstat_salt_max             =   3.4700000000000E+01
(PID.TID 0000.0001) %MON dynstat_salt_min             =   3.4000000000000E+01
(PID.TID 0000.0001) %MON dynstat_salt_mean            =   3.4499244665123E+01
(PID.TID 0000.0001) %MON dynstat_salt_sd              =   2.7636124172687E-01
(PID.TID 0000.0001) %MON dynstat_salt_del2            =   3.9797271873222E-07
(PID.TID 0000.0001) %MON advcfl_uvel_max              =   3.2156383829982E-04
(PID.TID 0000.0001) %MON advcfl_vvel_max              =   4.1279238643153E-04
(PID.TID 0000.0001) %MON advcfl_wvel_max              =   9.0260228467448E-04
(PID.TID 0000.0001) %MON advcfl_W_hf_max              =   9.0260228467448E-04
(PID.TID 0000.0001) %MON pe_b_mean                    =  -8.3142993201747E-01
(PID.TID 0000.0001) %MON ke_max                       =   8.7938679752566E-06
(PID.TID 0000.0001) %MON ke_mean                      =   1.7805609600634E-08
(PID.TID 0000.0001) %MON ke_vol                       =   4.2725351737901E+12
(PID.TID 0000.0001) // =======================================================
(PID.TID 0000.0001) // End MONITOR dynamic field statistics
(PID.TID 0000.0001) // =======================================================
(PID.TID 0000.0001) // =======================================================
(PID.TID 0000.0001) // Begin OBCS MONITOR field statistics
(PID.TID 0000.0001) // =======================================================
(PID.TID 0000.0001) %MON obc_N_vVel_max               =   1.4809405204534E-05
(PID.TID 0000.0001) %MON obc_N_vVel_min               =   1.4809405204534E-05
(PID.TID 0000.0001) %MON obc_N_vVel_mean              =   1.4809405204534E-05
(PID.TID 0000.0001) %MON obc_N_vVel_sd                =  -3.9291079096269E-24
(PID.TID 0000.0001) %MON obc_N_vVel_Int               =   9.7742074349923E+02
(PID.TID 0000.0001) // =======================================================
(PID.TID 0000.0001) // End OBCS MONITOR field statistics
(PID.TID 0000.0001) // =======================================================
 cg2d: Sum(rhs),rhsMax =   4.51849471145939E+00  2.99878530797063E+02
(PID.TID 0000.0001)      cg2d_init_res =   7.00244849187028E-06
(PID.TID 0000.0001)      cg2d_iters(min,last) =      -1      75
(PID.TID 0000.0001)      cg2d_last_res =   9.35881762378753E-12
(PID.TID 0000.0001) // =======================================================
(PID.TID 0000.0001) // Begin MONITOR dynamic field statistics
(PID.TID 0000.0001) // =======================================================
(PID.TID 0000.0001) %MON time_tsnumber                =                   318
(PID.TID 0000.0001) %MON time_secondsf                =   3.1800000000000E+04
(PID.TID 0000.0001) %MON dynstat_eta_max              =   5.7971611884646E+00
(PID.TID 0000.0001) %MON dynstat_eta_min              =  -1.4196192855658E+01
(PID.TID 0000.0001) %MON dynstat_eta_mean             =  -2.5092584360865E+00
(PID.TID 0000.0001) %MON dynstat_eta_sd               =   4.9517751059318E+00
(PID.TID 0000.0001) %MON dynstat_eta_del2             =   2.0714040726773E-01
(PID.TID 0000.0001) %MON dynstat_uvel_max             =   2.0141519144655E-03
(PID.TID 0000.0001) %MON dynstat_uvel_min             =  -3.2254122277454E-03
(PID.TID 0000.0001) %MON dynstat_uvel_mean            =  -1.1665139330553E-07
(PID.TID 0000.0001) %MON dynstat_uvel_sd              =   1.2241283885806E-04
(PID.TID 0000.0001) %MON dynstat_uvel_del2            =   3.1371271376007E-07
(PID.TID 0000.0001) %MON dynstat_vvel_max             =   4.1231539518254E-03
(PID.TID 0000.0001) %MON dynstat_vvel_min             =  -2.9601005119524E-03
(PID.TID 0000.0001) %MON dynstat_vvel_mean            =   1.5073107649459E-05
(PID.TID 0000.0001) %MON dynstat_vvel_sd              =   1.4433326196909E-04
(PID.TID 0000.0001) %MON dynstat_vvel_del2            =   4.4327523301789E-07
(PID.TID 0000.0001) %MON dynstat_wvel_max             =   1.8003298687088E-04
(PID.TID 0000.0001) %MON dynstat_wvel_min             =  -1.6922058419647E-04
(PID.TID 0000.0001) %MON dynstat_wvel_mean            =   6.7981407342848E-09
(PID.TID 0000.0001) %MON dynstat_wvel_sd              =   3.3151660872315E-05
(PID.TID 0000.0001) %MON dynstat_wvel_del2            =   1.6100428228349E-07
(PID.TID 0000.0001) %MON dynstat_theta_max            =   1.2000000000000E+00
(PID.TID 0000.0001) %MON dynstat_theta_min            =  -1.0000000000000E+00
(PID.TID 0000.0001) %MON dynstat_theta_mean           =   5.6907605105531E-01
(PID.TID 0000.0001) %MON dynstat_theta_sd             =   8.6856946054205E-01
(PID.TID 0000.0001) %MON dynstat_theta_del2           =   1.1933469345385E-06
(PID.TID 0000.0001) %MON dynstat_salt_max             =   3.4700000000000E+01
(PID.TID 0000.0001) %MON dynstat_salt_min             =   3.4000000000000E+01
(PID.TID 0000.0001) %MON dynstat_salt_mean            =   3.4499244560065E+01
(PID.TID 0000.0001) %MON dynstat_salt_sd              =   2.7636119251367E-01
(PID.TID 0000.0001) %MON dynstat_salt_del2            =   3.9722634670989E-07
(PID.TID 0000.0001) %MON advcfl_uvel_max              =   3.2254122277454E-04
(PID.TID 0000.0001) %MON advcfl_vvel_max              =   4.1231539518254E-04
(PID.TID 0000.0001) %MON advcfl_wvel_max              =   9.0016493435440E-04
(PID.TID 0000.0001) %MON advcfl_W_hf_max              =   9.0016493435440E-04
(PID.TID 0000.0001) %MON pe_b_mean                    =  -8.3143403615693E-01
(PID.TID 0000.0001) %MON ke_max                       =   8.8025355407364E-06
(PID.TID 0000.0001) %MON ke_mean                      =   1.7871890870083E-08
(PID.TID 0000.0001) %MON ke_vol                       =   4.2725350893651E+12
(PID.TID 0000.0001) // =======================================================
(PID.TID 0000.0001) // End MONITOR dynamic field statistics
(PID.TID 0000.0001) // =======================================================
(PID.TID 0000.0001) // =======================================================
(PID.TID 0000.0001) // Begin OBCS MONITOR field statistics
(PID.TID 0000.0001) // =======================================================
(PID.TID 0000.0001) %MON obc_N_vVel_max               =   1.4818266849501E-05
(PID.TID 0000.0001) %MON obc_N_vVel_min               =   1.4818266849500E-05
(PID.TID 0000.0001) %MON obc_N_vVel_mean              =   1.4818266849500E-05
(PID.TID 0000.0001) %MON obc_N_vVel_sd                =   2.7986365296536E-12
(PID.TID 0000.0001) %MON obc_N_vVel_Int               =   9.7800561206702E+02
(PID.TID 0000.0001) // =======================================================
(PID.TID 0000.0001) // End OBCS MONITOR field statistics
(PID.TID 0000.0001) // =======================================================
 cg2d: Sum(rhs),rhsMax =   4.51851916953697E+00  2.99878607777367E+02
(PID.TID 0000.0001)      cg2d_init_res =   6.98760616541472E-06
(PID.TID 0000.0001)      cg2d_iters(min,last) =      -1      75
(PID.TID 0000.0001)      cg2d_last_res =   9.28967979760838E-12
(PID.TID 0000.0001) // =======================================================
(PID.TID 0000.0001) // Begin MONITOR dynamic field statistics
(PID.TID 0000.0001) // =======================================================
(PID.TID 0000.0001) %MON time_tsnumber                =                   319
(PID.TID 0000.0001) %MON time_secondsf                =   3.1900000000000E+04
(PID.TID 0000.0001) %MON dynstat_eta_max              =   5.7971275935619E+00
(PID.TID 0000.0001) %MON dynstat_eta_min              =  -1.4196210026812E+01
(PID.TID 0000.0001) %MON dynstat_eta_mean             =  -2.5092726625483E+00
(PID.TID 0000.0001) %MON dynstat_eta_sd               =   4.9517797704906E+00
(PID.TID 0000.0001) %MON dynstat_eta_del2             =   2.0714041005685E-01
(PID.TID 0000.0001) %MON dynstat_uvel_max             =   2.0170054988343E-03
(PID.TID 0000.0001) %MON dynstat_uvel_min             =  -3.2351123683774E-03
(PID.TID 0000.0001) %MON dynstat_uvel_mean            =  -1.1645699486657E-07
(PID.TID 0000.0001) %MON dynstat_uvel_sd              =   1.2281983755718E-04
(PID.TID 0000.0001) %MON dynstat_uvel_del2            =   3.1342072881475E-07
(PID.TID 0000.0001) %MON dynstat_vvel_max             =   4.1182791569163E-03
(PID.TID 0000.0001) %MON dynstat_vvel_min             =  -2.9541093716592E-03
(PID.TID 0000.0001) %MON dynstat_vvel_mean            =   1.5077062176670E-05
(PID.TID 0000.0001) %MON dynstat_vvel_sd              =   1.4445282915520E-04
(PID.TID 0000.0001) %MON dynstat_vvel_del2            =   4.4241012759230E-07
(PID.TID 0000.0001) %MON dynstat_wvel_max             =   1.7954257189111E-04
(PID.TID 0000.0001) %MON dynstat_wvel_min             =  -1.7617569181739E-04
(PID.TID 0000.0001) %MON dynstat_wvel_mean            =   6.7748805771473E-09
(PID.TID 0000.0001) %MON dynstat_wvel_sd              =   3.3085788819505E-05
(PID.TID 0000.0001) %MON dynstat_wvel_del2            =   1.6059076494528E-07
(PID.TID 0000.0001) %MON dynstat_theta_max            =   1.2000000000000E+00
(PID.TID 0000.0001) %MON dynstat_theta_min            =  -1.0000000000000E+00
(PID.TID 0000.0001) %MON dynstat_theta_mean           =   5.6907578848376E-01
(PID.TID 0000.0001) %MON dynstat_theta_sd             =   8.6856932443122E-01
(PID.TID 0000.0001) %MON dynstat_theta_del2           =   1.1906055165681E-06
(PID.TID 0000.0001) %MON dynstat_salt_max             =   3.4700000000000E+01
(PID.TID 0000.0001) %MON dynstat_salt_min             =   3.4000000000000E+01
(PID.TID 0000.0001) %MON dynstat_salt_mean            =   3.4499244454940E+01
(PID.TID 0000.0001) %MON dynstat_salt_sd              =   2.7636114326102E-01
(PID.TID 0000.0001) %MON dynstat_salt_del2            =   3.9650840688537E-07
(PID.TID 0000.0001) %MON advcfl_uvel_max              =   3.2351123683774E-04
(PID.TID 0000.0001) %MON advcfl_vvel_max              =   4.1182791569163E-04
(PID.TID 0000.0001) %MON advcfl_wvel_max              =   8.9771285945556E-04
(PID.TID 0000.0001) %MON advcfl_W_hf_max              =   8.9771285945556E-04
(PID.TID 0000.0001) %MON pe_b_mean                    =  -8.3143814058539E-01
(PID.TID 0000.0001) %MON ke_max                       =   8.8108752884396E-06
(PID.TID 0000.0001) %MON ke_mean                      =   1.7938128945985E-08
(PID.TID 0000.0001) %MON ke_vol                       =   4.2725350048896E+12
(PID.TID 0000.0001) // =======================================================
(PID.TID 0000.0001) // End MONITOR dynamic field statistics
(PID.TID 0000.0001) // =======================================================
(PID.TID 0000.0001) // =======================================================
(PID.TID 0000.0001) // Begin OBCS MONITOR field statistics
(PID.TID 0000.0001) // =======================================================
(PID.TID 0000.0001) %MON obc_N_vVel_max               =   1.4824040385880E-05
(PID.TID 0000.0001) %MON obc_N_vVel_min               =   1.4824040385880E-05
(PID.TID 0000.0001) %MON obc_N_vVel_mean              =   1.4824040385880E-05
(PID.TID 0000.0001) %MON obc_N_vVel_sd                =  -1.5276991938089E-23
(PID.TID 0000.0001) %MON obc_N_vVel_Int               =   9.7838666546809E+02
(PID.TID 0000.0001) // =======================================================
(PID.TID 0000.0001) // End OBCS MONITOR field statistics
(PID.TID 0000.0001) // =======================================================
 cg2d: Sum(rhs),rhsMax =   4.51854363070303E+00  2.99878684732108E+02
(PID.TID 0000.0001)      cg2d_init_res =   6.97196565196776E-06
(PID.TID 0000.0001)      cg2d_iters(min,last) =      -1      75
(PID.TID 0000.0001)      cg2d_last_res =   9.23822207043838E-12
(PID.TID 0000.0001) // =======================================================
(PID.TID 0000.0001) // Begin MONITOR dynamic field statistics
(PID.TID 0000.0001) // =======================================================
(PID.TID 0000.0001) %MON time_tsnumber                =                   320
(PID.TID 0000.0001) %MON time_secondsf                =   3.2000000000000E+04
(PID.TID 0000.0001) %MON dynstat_eta_max              =   5.7970940134920E+00
(PID.TID 0000.0001) %MON dynstat_eta_min              =  -1.4196227194731E+01
(PID.TID 0000.0001) %MON dynstat_eta_mean             =  -2.5092868905183E+00
(PID.TID 0000.0001) %MON dynstat_eta_sd               =   4.9517844329224E+00
(PID.TID 0000.0001) %MON dynstat_eta_del2             =   2.0714041287837E-01
(PID.TID 0000.0001) %MON dynstat_uvel_max             =   2.0197839833970E-03
(PID.TID 0000.0001) %MON dynstat_uvel_min             =  -3.2447384842235E-03
(PID.TID 0000.0001) %MON dynstat_uvel_mean            =  -1.1626461156157E-07
(PID.TID 0000.0001) %MON dynstat_uvel_sd              =   1.2322781462589E-04
(PID.TID 0000.0001) %MON dynstat_uvel_del2            =   3.1313358972663E-07
(PID.TID 0000.0001) %MON dynstat_vvel_max             =   4.1133000930476E-03
(PID.TID 0000.0001) %MON dynstat_vvel_min             =  -2.9480635564676E-03
(PID.TID 0000.0001) %MON dynstat_vvel_mean            =   1.5077341295050E-05
(PID.TID 0000.0001) %MON dynstat_vvel_sd              =   1.4457038594884E-04
(PID.TID 0000.0001) %MON dynstat_vvel_del2            =   4.4149588652948E-07
(PID.TID 0000.0001) %MON dynstat_wvel_max             =   1.7904925102693E-04
(PID.TID 0000.0001) %MON dynstat_wvel_min             =  -1.8047772923507E-04
(PID.TID 0000.0001) %MON dynstat_wvel_mean            =   6.7468461856759E-09
(PID.TID 0000.0001) %MON dynstat_wvel_sd              =   3.3015629242504E-05
(PID.TID 0000.0001) %MON dynstat_wvel_del2            =   1.6010959519280E-07
(PID.TID 0000.0001) %MON dynstat_theta_max            =   1.2000000000000E+00
(PID.TID 0000.0001) %MON dynstat_theta_min            =  -1.0000000000000E+00
(PID.TID 0000.0001) %MON dynstat_theta_mean           =   5.6907552573913E-01
(PID.TID 0000.0001) %MON dynstat_theta_sd             =   8.6856918816743E-01
(PID.TID 0000.0001) %MON dynstat_theta_del2           =   1.1879509093032E-06
(PID.TID 0000.0001) %MON dynstat_salt_max             =   3.4700000000000E+01
(PID.TID 0000.0001) %MON dynstat_salt_min             =   3.4000000000000E+01
(PID.TID 0000.0001) %MON dynstat_salt_mean            =   3.4499244349746E+01
(PID.TID 0000.0001) %MON dynstat_salt_sd              =   2.7636109395132E-01
(PID.TID 0000.0001) %MON dynstat_salt_del2            =   3.9581780500112E-07
(PID.TID 0000.0001) %MON advcfl_uvel_max              =   3.2447384842235E-04
(PID.TID 0000.0001) %MON advcfl_vvel_max              =   4.1133000930476E-04
(PID.TID 0000.0001) %MON advcfl_wvel_max              =   9.0238864617536E-04
(PID.TID 0000.0001) %MON advcfl_W_hf_max              =   9.0238864617536E-04
(PID.TID 0000.0001) %MON pe_b_mean                    =  -8.3144224437373E-01
(PID.TID 0000.0001) %MON ke_max                       =   8.8188879869488E-06
(PID.TID 0000.0001) %MON ke_mean                      =   1.8004316192550E-08
(PID.TID 0000.0001) %MON ke_vol                       =   4.2725349203845E+12
(PID.TID 0000.0001) // =======================================================
(PID.TID 0000.0001) // End MONITOR dynamic field statistics
(PID.TID 0000.0001) // =======================================================
(PID.TID 0000.0001) // =======================================================
(PID.TID 0000.0001) // Begin OBCS MONITOR field statistics
(PID.TID 0000.0001) // =======================================================
(PID.TID 0000.0001) %MON obc_N_vVel_max               =   1.4826695570285E-05
(PID.TID 0000.0001) %MON obc_N_vVel_min               =   1.4826695570284E-05
(PID.TID 0000.0001) %MON obc_N_vVel_mean              =   1.4826695570284E-05
(PID.TID 0000.0001) %MON obc_N_vVel_sd                =   3.6662903532026E-12
(PID.TID 0000.0001) %MON obc_N_vVel_Int               =   9.7856190763877E+02
(PID.TID 0000.0001) // =======================================================
(PID.TID 0000.0001) // End OBCS MONITOR field statistics
(PID.TID 0000.0001) // =======================================================
 cg2d: Sum(rhs),rhsMax =   4.51856808875646E+00  2.99878761661138E+02
(PID.TID 0000.0001)      cg2d_init_res =   6.95583709045085E-06
(PID.TID 0000.0001)      cg2d_iters(min,last) =      -1      75
(PID.TID 0000.0001)      cg2d_last_res =   9.20891998478119E-12
(PID.TID 0000.0001) // =======================================================
(PID.TID 0000.0001) // Begin MONITOR dynamic field statistics
(PID.TID 0000.0001) // =======================================================
(PID.TID 0000.0001) %MON time_tsnumber                =                   321
(PID.TID 0000.0001) %MON time_secondsf                =   3.2100000000000E+04
(PID.TID 0000.0001) %MON dynstat_eta_max              =   5.7970604502554E+00
(PID.TID 0000.0001) %MON dynstat_eta_min              =  -1.4196244352329E+01
(PID.TID 0000.0001) %MON dynstat_eta_mean             =  -2.5093011165515E+00
(PID.TID 0000.0001) %MON dynstat_eta_sd               =   4.9517890922330E+00
(PID.TID 0000.0001) %MON dynstat_eta_del2             =   2.0714041573404E-01
(PID.TID 0000.0001) %MON dynstat_uvel_max             =   2.0224872953553E-03
(PID.TID 0000.0001) %MON dynstat_uvel_min             =  -3.2542902584549E-03
(PID.TID 0000.0001) %MON dynstat_uvel_mean            =  -1.1608004729622E-07
(PID.TID 0000.0001) %MON dynstat_uvel_sd              =   1.2363674765310E-04
(PID.TID 0000.0001) %MON dynstat_uvel_del2            =   3.1285128395403E-07
(PID.TID 0000.0001) %MON dynstat_vvel_max             =   4.1082175057454E-03
(PID.TID 0000.0001) %MON dynstat_vvel_min             =  -2.9419634285475E-03
(PID.TID 0000.0001) %MON dynstat_vvel_mean            =   1.5074090829710E-05
(PID.TID 0000.0001) %MON dynstat_vvel_sd              =   1.4468617566683E-04
(PID.TID 0000.0001) %MON dynstat_vvel_del2            =   4.4053980743490E-07
(PID.TID 0000.0001) %MON dynstat_wvel_max             =   1.7855306246934E-04
(PID.TID 0000.0001) %MON dynstat_wvel_min             =  -1.8204996808472E-04
(PID.TID 0000.0001) %MON dynstat_wvel_mean            =   6.7150105956022E-09
(PID.TID 0000.0001) %MON dynstat_wvel_sd              =   3.2941701252009E-05
(PID.TID 0000.0001) %MON dynstat_wvel_del2            =   1.5957004185841E-07
(PID.TID 0000.0001) %MON dynstat_theta_max            =   1.2000000000000E+00
(PID.TID 0000.0001) %MON dynstat_theta_min            =  -1.0000000000000E+00
(PID.TID 0000.0001) %MON dynstat_theta_mean           =   5.6907526281456E-01
(PID.TID 0000.0001) %MON dynstat_theta_sd             =   8.6856905174732E-01
(PID.TID 0000.0001) %MON dynstat_theta_del2           =   1.1853725934017E-06
(PID.TID 0000.0001) %MON dynstat_salt_max             =   3.4700000000000E+01
(PID.TID 0000.0001) %MON dynstat_salt_min             =   3.4000000000000E+01
(PID.TID 0000.0001) %MON dynstat_salt_mean            =   3.4499244244480E+01
(PID.TID 0000.0001) %MON dynstat_salt_sd              =   2.7636104458309E-01
(PID.TID 0000.0001) %MON dynstat_salt_del2            =   3.9515128317385E-07
(PID.TID 0000.0001) %MON advcfl_uvel_max              =   3.2542902584549E-04
(PID.TID 0000.0001) %MON advcfl_vvel_max              =   4.1082175057454E-04
(PID.TID 0000.0001) %MON advcfl_wvel_max              =   9.1024984042362E-04
(PID.TID 0000.0001) %MON advcfl_W_hf_max              =   9.1024984042362E-04
(PID.TID 0000.0001) %MON pe_b_mean                    =  -8.3144634663320E-01
(PID.TID 0000.0001) %MON ke_max                       =   8.8265748272200E-06
(PID.TID 0000.0001) %MON ke_mean                      =   1.8070487749286E-08
(PID.TID 0000.0001) %MON ke_vol                       =   4.2725348358703E+12
(PID.TID 0000.0001) // =======================================================
(PID.TID 0000.0001) // End MONITOR dynamic field statistics
(PID.TID 0000.0001) // =======================================================
(PID.TID 0000.0001) // =======================================================
(PID.TID 0000.0001) // Begin OBCS MONITOR field statistics
(PID.TID 0000.0001) // =======================================================
(PID.TID 0000.0001) %MON obc_N_vVel_max               =   1.4826290874485E-05
(PID.TID 0000.0001) %MON obc_N_vVel_min               =   1.4826290874485E-05
(PID.TID 0000.0001) %MON obc_N_vVel_mean              =   1.4826290874485E-05
(PID.TID 0000.0001) %MON obc_N_vVel_sd                =   4.5842728363041E-12
(PID.TID 0000.0001) %MON obc_N_vVel_Int               =   9.7853519771599E+02
(PID.TID 0000.0001) // =======================================================
(PID.TID 0000.0001) // End OBCS MONITOR field statistics
(PID.TID 0000.0001) // =======================================================
 cg2d: Sum(rhs),rhsMax =   4.51859253774770E+00  2.99878838567010E+02
(PID.TID 0000.0001)      cg2d_init_res =   6.93966299650136E-06
(PID.TID 0000.0001)      cg2d_iters(min,last) =      -1      75
(PID.TID 0000.0001)      cg2d_last_res =   9.19758980432662E-12
(PID.TID 0000.0001) // =======================================================
(PID.TID 0000.0001) // Begin MONITOR dynamic field statistics
(PID.TID 0000.0001) // =======================================================
(PID.TID 0000.0001) %MON time_tsnumber                =                   322
(PID.TID 0000.0001) %MON time_secondsf                =   3.2200000000000E+04
(PID.TID 0000.0001) %MON dynstat_eta_max              =   5.7970269057358E+00
(PID.TID 0000.0001) %MON dynstat_eta_min              =  -1.4196261493085E+01
(PID.TID 0000.0001) %MON dynstat_eta_mean             =  -2.5093153373654E+00
(PID.TID 0000.0001) %MON dynstat_eta_sd               =   4.9517937475402E+00
(PID.TID 0000.0001) %MON dynstat_eta_del2             =   2.0714041862439E-01
(PID.TID 0000.0001) %MON dynstat_uvel_max             =   2.0251153682140E-03
(PID.TID 0000.0001) %MON dynstat_uvel_min             =  -3.2637673778200E-03
(PID.TID 0000.0001) %MON dynstat_uvel_mean            =  -1.1590856467723E-07
(PID.TID 0000.0001) %MON dynstat_uvel_sd              =   1.2404661489407E-04
(PID.TID 0000.0001) %MON dynstat_uvel_del2            =   3.1257380457203E-07
(PID.TID 0000.0001) %MON dynstat_vvel_max             =   4.1030322619999E-03
(PID.TID 0000.0001) %MON dynstat_vvel_min             =  -2.9358092306406E-03
(PID.TID 0000.0001) %MON dynstat_vvel_mean            =   1.5067550701175E-05
(PID.TID 0000.0001) %MON dynstat_vvel_sd              =   1.4480068419054E-04
(PID.TID 0000.0001) %MON dynstat_vvel_del2            =   4.3955504651607E-07
(PID.TID 0000.0001) %MON dynstat_wvel_max             =   1.7805404374492E-04
(PID.TID 0000.0001) %MON dynstat_wvel_min             =  -1.8085840904440E-04
(PID.TID 0000.0001) %MON dynstat_wvel_mean            =   6.6804207015873E-09
(PID.TID 0000.0001) %MON dynstat_wvel_sd              =   3.2865024115208E-05
(PID.TID 0000.0001) %MON dynstat_wvel_del2            =   1.5898880465586E-07
(PID.TID 0000.0001) %MON dynstat_theta_max            =   1.2000000000000E+00
(PID.TID 0000.0001) %MON dynstat_theta_min            =  -1.0000000000000E+00
(PID.TID 0000.0001) %MON dynstat_theta_mean           =   5.6907499970377E-01
(PID.TID 0000.0001) %MON dynstat_theta_sd             =   8.6856891523273E-01
(PID.TID 0000.0001) %MON dynstat_theta_del2           =   1.1828534573949E-06
(PID.TID 0000.0001) %MON dynstat_salt_max             =   3.4700000000000E+01
(PID.TID 0000.0001) %MON dynstat_salt_min             =   3.4000000000000E+01
(PID.TID 0000.0001) %MON dynstat_salt_mean            =   3.4499244139139E+01
(PID.TID 0000.0001) %MON dynstat_salt_sd              =   2.7636099517574E-01
(PID.TID 0000.0001) %MON dynstat_salt_del2            =   3.9450364061695E-07
(PID.TID 0000.0001) %MON advcfl_uvel_max              =   3.2637673778200E-04
(PID.TID 0000.0001) %MON advcfl_vvel_max              =   4.1030322619999E-04
(PID.TID 0000.0001) %MON advcfl_wvel_max              =   9.0429204522199E-04
(PID.TID 0000.0001) %MON advcfl_W_hf_max              =   9.0429204522199E-04
(PID.TID 0000.0001) %MON pe_b_mean                    =  -8.3145044654087E-01
(PID.TID 0000.0001) %MON ke_max                       =   8.8339373864073E-06
(PID.TID 0000.0001) %MON ke_mean                      =   1.8136715491037E-08
(PID.TID 0000.0001) %MON ke_vol                       =   4.2725347513677E+12
(PID.TID 0000.0001) // =======================================================
(PID.TID 0000.0001) // End MONITOR dynamic field statistics
(PID.TID 0000.0001) // =======================================================
(PID.TID 0000.0001) // =======================================================
(PID.TID 0000.0001) // Begin OBCS MONITOR field statistics
(PID.TID 0000.0001) // =======================================================
(PID.TID 0000.0001) %MON obc_N_vVel_max               =   1.4822968653669E-05
(PID.TID 0000.0001) %MON obc_N_vVel_min               =   1.4822968653669E-05
(PID.TID 0000.0001) %MON obc_N_vVel_mean              =   1.4822968653669E-05
(PID.TID 0000.0001) %MON obc_N_vVel_sd                =  -9.1506855263679E-24
(PID.TID 0000.0001) %MON obc_N_vVel_Int               =   9.7831593114215E+02
(PID.TID 0000.0001) // =======================================================
(PID.TID 0000.0001) // End OBCS MONITOR field statistics
(PID.TID 0000.0001) // =======================================================
 cg2d: Sum(rhs),rhsMax =   4.51861697213835E+00  2.99878915454692E+02
(PID.TID 0000.0001)      cg2d_init_res =   6.92399118521797E-06
(PID.TID 0000.0001)      cg2d_iters(min,last) =      -1      75
(PID.TID 0000.0001)      cg2d_last_res =   9.19682204147783E-12
(PID.TID 0000.0001) // =======================================================
(PID.TID 0000.0001) // Begin MONITOR dynamic field statistics
(PID.TID 0000.0001) // =======================================================
(PID.TID 0000.0001) %MON time_tsnumber                =                   323
(PID.TID 0000.0001) %MON time_secondsf                =   3.2300000000000E+04
(PID.TID 0000.0001) %MON dynstat_eta_max              =   5.7969933810215E+00
(PID.TID 0000.0001) %MON dynstat_eta_min              =  -1.4196278611231E+01
(PID.TID 0000.0001) %MON dynstat_eta_mean             =  -2.5093295499260E+00
(PID.TID 0000.0001) %MON dynstat_eta_sd               =   4.9517983981067E+00
(PID.TID 0000.0001) %MON dynstat_eta_del2             =   2.0714042154999E-01
(PID.TID 0000.0001) %MON dynstat_uvel_max             =   2.0276681419976E-03
(PID.TID 0000.0001) %MON dynstat_uvel_min             =  -3.2731695325295E-03
(PID.TID 0000.0001) %MON dynstat_uvel_mean            =  -1.1575482059978E-07
(PID.TID 0000.0001) %MON dynstat_uvel_sd              =   1.2445739516955E-04
(PID.TID 0000.0001) %MON dynstat_uvel_del2            =   3.1230114889900E-07
(PID.TID 0000.0001) %MON dynstat_vvel_max             =   4.0977453366260E-03
(PID.TID 0000.0001) %MON dynstat_vvel_min             =  -2.9296010995621E-03
(PID.TID 0000.0001) %MON dynstat_vvel_mean            =   1.5058044984962E-05
(PID.TID 0000.0001) %MON dynstat_vvel_sd              =   1.4491456751640E-04
(PID.TID 0000.0001) %MON dynstat_vvel_del2            =   4.3855874742359E-07
(PID.TID 0000.0001) %MON dynstat_wvel_max             =   1.7755223164953E-04
(PID.TID 0000.0001) %MON dynstat_wvel_min             =  -1.7691295907208E-04
(PID.TID 0000.0001) %MON dynstat_wvel_mean            =   6.6441673336564E-09
(PID.TID 0000.0001) %MON dynstat_wvel_sd              =   3.2786971282836E-05
(PID.TID 0000.0001) %MON dynstat_wvel_del2            =   1.5838769689244E-07
(PID.TID 0000.0001) %MON dynstat_theta_max            =   1.2000000000000E+00
(PID.TID 0000.0001) %MON dynstat_theta_min            =  -1.0000000000000E+00
(PID.TID 0000.0001) %MON dynstat_theta_mean           =   5.6907473640121E-01
(PID.TID 0000.0001) %MON dynstat_theta_sd             =   8.6856877863255E-01
(PID.TID 0000.0001) %MON dynstat_theta_del2           =   1.1803744059148E-06
(PID.TID 0000.0001) %MON dynstat_salt_max             =   3.4700000000000E+01
(PID.TID 0000.0001) %MON dynstat_salt_min             =   3.4000000000000E+01
(PID.TID 0000.0001) %MON dynstat_salt_mean            =   3.4499244033722E+01
(PID.TID 0000.0001) %MON dynstat_salt_sd              =   2.7636094573181E-01
(PID.TID 0000.0001) %MON dynstat_salt_del2            =   3.9386899932682E-07
(PID.TID 0000.0001) %MON advcfl_uvel_max              =   3.2731695325295E-04
(PID.TID 0000.0001) %MON advcfl_vvel_max              =   4.0977453366260E-04
(PID.TID 0000.0001) %MON advcfl_wvel_max              =   8.8776115824766E-04
(PID.TID 0000.0001) %MON advcfl_W_hf_max              =   8.8776115824766E-04
(PID.TID 0000.0001) %MON pe_b_mean                    =  -8.3145454336252E-01
(PID.TID 0000.0001) %MON ke_max                       =   8.8409775827842E-06
(PID.TID 0000.0001) %MON ke_mean                      =   1.8203097493562E-08
(PID.TID 0000.0001) %MON ke_vol                       =   4.2725346668960E+12
(PID.TID 0000.0001) // =======================================================
(PID.TID 0000.0001) // End MONITOR dynamic field statistics
(PID.TID 0000.0001) // =======================================================
(PID.TID 0000.0001) // =======================================================
(PID.TID 0000.0001) // Begin OBCS MONITOR field statistics
(PID.TID 0000.0001) // =======================================================
(PID.TID 0000.0001) %MON obc_N_vVel_max               =   1.4816948155266E-05
(PID.TID 0000.0001) %MON obc_N_vVel_min               =   1.4816948155266E-05
(PID.TID 0000.0001) %MON obc_N_vVel_mean              =   1.4816948155266E-05
(PID.TID 0000.0001) %MON obc_N_vVel_sd                =   3.8114773392954E-12
(PID.TID 0000.0001) %MON obc_N_vVel_Int               =   9.7791857824755E+02
(PID.TID 0000.0001) // =======================================================
(PID.TID 0000.0001) // End OBCS MONITOR field statistics
(PID.TID 0000.0001) // =======================================================
 cg2d: Sum(rhs),rhsMax =   4.51864138694748E+00  2.99878992331082E+02
(PID.TID 0000.0001)      cg2d_init_res =   6.90942778757650E-06
(PID.TID 0000.0001)      cg2d_iters(min,last) =      -1      75
(PID.TID 0000.0001)      cg2d_last_res =   9.19777998626622E-12
(PID.TID 0000.0001) // =======================================================
(PID.TID 0000.0001) // Begin MONITOR dynamic field statistics
(PID.TID 0000.0001) // =======================================================
(PID.TID 0000.0001) %MON time_tsnumber                =                   324
(PID.TID 0000.0001) %MON time_secondsf                =   3.2400000000000E+04
(PID.TID 0000.0001) %MON dynstat_eta_max              =   5.7969598776254E+00
(PID.TID 0000.0001) %MON dynstat_eta_min              =  -1.4196295701872E+01
(PID.TID 0000.0001) %MON dynstat_eta_mean             =  -2.5093437515247E+00
(PID.TID 0000.0001) %MON dynstat_eta_sd               =   4.9518030433649E+00
(PID.TID 0000.0001) %MON dynstat_eta_del2             =   2.0714042451242E-01
(PID.TID 0000.0001) %MON dynstat_uvel_max             =   2.0301455633006E-03
(PID.TID 0000.0001) %MON dynstat_uvel_min             =  -3.2824964161625E-03
(PID.TID 0000.0001) %MON dynstat_uvel_mean            =  -1.1562277982841E-07
(PID.TID 0000.0001) %MON dynstat_uvel_sd              =   1.2486906786258E-04
(PID.TID 0000.0001) %MON dynstat_uvel_del2            =   3.1203331910631E-07
(PID.TID 0000.0001) %MON dynstat_vvel_max             =   4.0923577958427E-03
(PID.TID 0000.0001) %MON dynstat_vvel_min             =  -2.9233390825087E-03
(PID.TID 0000.0001) %MON dynstat_vvel_mean            =   1.5045969968013E-05
(PID.TID 0000.0001) %MON dynstat_vvel_sd              =   1.4502855854155E-04
(PID.TID 0000.0001) %MON dynstat_vvel_del2            =   4.3756968759048E-07
(PID.TID 0000.0001) %MON dynstat_wvel_max             =   1.7704766242435E-04
(PID.TID 0000.0001) %MON dynstat_wvel_min             =  -1.7026788780678E-04
(PID.TID 0000.0001) %MON dynstat_wvel_mean            =   6.6073496464437E-09
(PID.TID 0000.0001) %MON dynstat_wvel_sd              =   3.2709080436629E-05
(PID.TID 0000.0001) %MON dynstat_wvel_del2            =   1.5779069946354E-07
(PID.TID 0000.0001) %MON dynstat_theta_max            =   1.2000000000000E+00
(PID.TID 0000.0001) %MON dynstat_theta_min            =  -1.0000000000000E+00
(PID.TID 0000.0001) %MON dynstat_theta_mean           =   5.6907447290221E-01
(PID.TID 0000.0001) %MON dynstat_theta_sd             =   8.6856864184410E-01
(PID.TID 0000.0001) %MON dynstat_theta_del2           =   1.1779150957312E-06
(PID.TID 0000.0001) %MON dynstat_salt_max             =   3.4700000000000E+01
(PID.TID 0000.0001) %MON dynstat_salt_min             =   3.4000000000000E+01
(PID.TID 0000.0001) %MON dynstat_salt_mean            =   3.4499243928227E+01
(PID.TID 0000.0001) %MON dynstat_salt_sd              =   2.7636089621850E-01
(PID.TID 0000.0001) %MON dynstat_salt_del2            =   3.9324114361945E-07
(PID.TID 0000.0001) %MON advcfl_uvel_max              =   3.2824964161625E-04
(PID.TID 0000.0001) %MON advcfl_vvel_max              =   4.0923577958427E-04
(PID.TID 0000.0001) %MON advcfl_wvel_max              =   8.8523831212177E-04
(PID.TID 0000.0001) %MON advcfl_W_hf_max              =   8.8523831212177E-04
(PID.TID 0000.0001) %MON pe_b_mean                    =  -8.3145863647062E-01
(PID.TID 0000.0001) %MON ke_max                       =   8.8476976225448E-06
(PID.TID 0000.0001) %MON ke_mean                      =   1.8269744417623E-08
(PID.TID 0000.0001) %MON ke_vol                       =   4.2725345824734E+12
(PID.TID 0000.0001) // =======================================================
(PID.TID 0000.0001) // End MONITOR dynamic field statistics
(PID.TID 0000.0001) // =======================================================
(PID.TID 0000.0001) // =======================================================
(PID.TID 0000.0001) // Begin OBCS MONITOR field statistics
(PID.TID 0000.0001) // =======================================================
(PID.TID 0000.0001) %MON obc_N_vVel_max               =   1.4808516841762E-05
(PID.TID 0000.0001) %MON obc_N_vVel_min               =   1.4808516841762E-05
(PID.TID 0000.0001) %MON obc_N_vVel_mean              =   1.4808516841762E-05
(PID.TID 0000.0001) %MON obc_N_vVel_sd                =  -2.8951321439356E-24
(PID.TID 0000.0001) %MON obc_N_vVel_Int               =   9.7736211155630E+02
(PID.TID 0000.0001) // =======================================================
(PID.TID 0000.0001) // End OBCS MONITOR field statistics
(PID.TID 0000.0001) // =======================================================
 cg2d: Sum(rhs),rhsMax =   4.51866577786815E+00  2.99879069204422E+02
(PID.TID 0000.0001)      cg2d_init_res =   6.89650828786007E-06
(PID.TID 0000.0001)      cg2d_iters(min,last) =      -1      75
(PID.TID 0000.0001)      cg2d_last_res =   9.19773608038506E-12
(PID.TID 0000.0001) // =======================================================
(PID.TID 0000.0001) // Begin MONITOR dynamic field statistics
(PID.TID 0000.0001) // =======================================================
(PID.TID 0000.0001) %MON time_tsnumber                =                   325
(PID.TID 0000.0001) %MON time_secondsf                =   3.2500000000000E+04
(PID.TID 0000.0001) %MON dynstat_eta_max              =   5.7969263963687E+00
(PID.TID 0000.0001) %MON dynstat_eta_min              =  -1.4196312761099E+01
(PID.TID 0000.0001) %MON dynstat_eta_mean             =  -2.5093579398388E+00
(PID.TID 0000.0001) %MON dynstat_eta_sd               =   4.9518076829074E+00
(PID.TID 0000.0001) %MON dynstat_eta_del2             =   2.0714042751234E-01
(PID.TID 0000.0001) %MON dynstat_uvel_max             =   2.0325475851822E-03
(PID.TID 0000.0001) %MON dynstat_uvel_min             =  -3.2917477259604E-03
(PID.TID 0000.0001) %MON dynstat_uvel_mean            =  -1.1551554219116E-07
(PID.TID 0000.0001) %MON dynstat_uvel_sd              =   1.2528161276490E-04
(PID.TID 0000.0001) %MON dynstat_uvel_del2            =   3.1177032114851E-07
(PID.TID 0000.0001) %MON dynstat_vvel_max             =   4.0868707786892E-03
(PID.TID 0000.0001) %MON dynstat_vvel_min             =  -2.9170231553772E-03
(PID.TID 0000.0001) %MON dynstat_vvel_mean            =   1.5031780394909E-05
(PID.TID 0000.0001) %MON dynstat_vvel_sd              =   1.4514336796440E-04
(PID.TID 0000.0001) %MON dynstat_vvel_del2            =   4.3660577811780E-07
(PID.TID 0000.0001) %MON dynstat_wvel_max             =   1.7654037171348E-04
(PID.TID 0000.0001) %MON dynstat_wvel_min             =  -1.6102153521188E-04
(PID.TID 0000.0001) %MON dynstat_wvel_mean            =   6.5710438855496E-09
(PID.TID 0000.0001) %MON dynstat_wvel_sd              =   3.2632848181909E-05
(PID.TID 0000.0001) %MON dynstat_wvel_del2            =   1.5722078648884E-07
(PID.TID 0000.0001) %MON dynstat_theta_max            =   1.2000000000000E+00
(PID.TID 0000.0001) %MON dynstat_theta_min            =  -1.0000000000000E+00
(PID.TID 0000.0001) %MON dynstat_theta_mean           =   5.6907420920254E-01
(PID.TID 0000.0001) %MON dynstat_theta_sd             =   8.6856850489936E-01
(PID.TID 0000.0001) %MON dynstat_theta_del2           =   1.1754565116992E-06
(PID.TID 0000.0001) %MON dynstat_salt_max             =   3.4700000000000E+01
(PID.TID 0000.0001) %MON dynstat_salt_min             =   3.4000000000000E+01
(PID.TID 0000.0001) %MON dynstat_salt_mean            =   3.4499243822652E+01
(PID.TID 0000.0001) %MON dynstat_salt_sd              =   2.7636084664574E-01
(PID.TID 0000.0001) %MON dynstat_salt_del2            =   3.9261426301228E-07
(PID.TID 0000.0001) %MON advcfl_uvel_max              =   3.2917477259604E-04
(PID.TID 0000.0001) %MON advcfl_vvel_max              =   4.0868707786892E-04
(PID.TID 0000.0001) %MON advcfl_wvel_max              =   8.8270185856740E-04
(PID.TID 0000.0001) %MON advcfl_W_hf_max              =   8.8270185856740E-04
(PID.TID 0000.0001) %MON pe_b_mean                    =  -8.3146272535507E-01
(PID.TID 0000.0001) %MON ke_max                       =   8.8540999411212E-06
(PID.TID 0000.0001) %MON ke_mean                      =   1.8336764931514E-08
(PID.TID 0000.0001) %MON ke_vol                       =   4.2725344981159E+12
(PID.TID 0000.0001) // =======================================================
(PID.TID 0000.0001) // End MONITOR dynamic field statistics
(PID.TID 0000.0001) // =======================================================
(PID.TID 0000.0001) // =======================================================
(PID.TID 0000.0001) // Begin OBCS MONITOR field statistics
(PID.TID 0000.0001) // =======================================================
(PID.TID 0000.0001) %MON obc_N_vVel_max               =   1.4798019624733E-05
(PID.TID 0000.0001) %MON obc_N_vVel_min               =   1.4798019624732E-05
(PID.TID 0000.0001) %MON obc_N_vVel_mean              =   1.4798019624732E-05
(PID.TID 0000.0001) %MON obc_N_vVel_sd                =   4.8072194003603E-12
(PID.TID 0000.0001) %MON obc_N_vVel_Int               =   9.7666929523234E+02
(PID.TID 0000.0001) // =======================================================
(PID.TID 0000.0001) // End OBCS MONITOR field statistics
(PID.TID 0000.0001) // =======================================================
 cg2d: Sum(rhs),rhsMax =   4.51869014134720E+00  2.99879146083783E+02
(PID.TID 0000.0001)      cg2d_init_res =   6.88571895619372E-06
(PID.TID 0000.0001)      cg2d_iters(min,last) =      -1      75
(PID.TID 0000.0001)      cg2d_last_res =   9.20496936524862E-12
(PID.TID 0000.0001) // =======================================================
(PID.TID 0000.0001) // Begin MONITOR dynamic field statistics
(PID.TID 0000.0001) // =======================================================
(PID.TID 0000.0001) %MON time_tsnumber                =                   326
(PID.TID 0000.0001) %MON time_secondsf                =   3.2600000000000E+04
(PID.TID 0000.0001) %MON dynstat_eta_max              =   5.7968929376688E+00
(PID.TID 0000.0001) %MON dynstat_eta_min              =  -1.4196329786068E+01
(PID.TID 0000.0001) %MON dynstat_eta_mean             =  -2.5093721129711E+00
(PID.TID 0000.0001) %MON dynstat_eta_sd               =   4.9518123164951E+00
(PID.TID 0000.0001) %MON dynstat_eta_del2             =   2.0714043054993E-01
(PID.TID 0000.0001) %MON dynstat_uvel_max             =   2.0348741671213E-03
(PID.TID 0000.0001) %MON dynstat_uvel_min             =  -3.3009231627525E-03
(PID.TID 0000.0001) %MON dynstat_uvel_mean            =  -1.1543533735649E-07
(PID.TID 0000.0001) %MON dynstat_uvel_sd              =   1.2569501002760E-04
(PID.TID 0000.0001) %MON dynstat_uvel_del2            =   3.1151216456637E-07
(PID.TID 0000.0001) %MON dynstat_vvel_max             =   4.0812854769889E-03
(PID.TID 0000.0001) %MON dynstat_vvel_min             =  -2.9106532427434E-03
(PID.TID 0000.0001) %MON dynstat_vvel_mean            =   1.5015974423894E-05
(PID.TID 0000.0001) %MON dynstat_vvel_sd              =   1.4525958928421E-04
(PID.TID 0000.0001) %MON dynstat_vvel_del2            =   4.3568170855669E-07
(PID.TID 0000.0001) %MON dynstat_wvel_max             =   1.7603039482387E-04
(PID.TID 0000.0001) %MON dynstat_wvel_min             =  -1.5472723313538E-04
(PID.TID 0000.0001) %MON dynstat_wvel_mean            =   6.5362804727144E-09
(PID.TID 0000.0001) %MON dynstat_wvel_sd              =   3.2559531870233E-05
(PID.TID 0000.0001) %MON dynstat_wvel_del2            =   1.5669689822672E-07
(PID.TID 0000.0001) %MON dynstat_theta_max            =   1.2000000000000E+00
(PID.TID 0000.0001) %MON dynstat_theta_min            =  -1.0000000000000E+00
(PID.TID 0000.0001) %MON dynstat_theta_mean           =   5.6907394529717E-01
(PID.TID 0000.0001) %MON dynstat_theta_sd             =   8.6856836786890E-01
(PID.TID 0000.0001) %MON dynstat_theta_del2           =   1.1729840625735E-06
(PID.TID 0000.0001) %MON dynstat_salt_max             =   3.4700000000000E+01
(PID.TID 0000.0001) %MON dynstat_salt_min             =   3.4000000000000E+01
(PID.TID 0000.0001) %MON dynstat_salt_mean            =   3.4499243716995E+01
(PID.TID 0000.0001) %MON dynstat_salt_sd              =   2.7636079703577E-01
(PID.TID 0000.0001) %MON dynstat_salt_del2            =   3.9198390389547E-07
(PID.TID 0000.0001) %MON advcfl_uvel_max              =   3.3009231627525E-04
(PID.TID 0000.0001) %MON advcfl_vvel_max              =   4.0812854769889E-04
(PID.TID 0000.0001) %MON advcfl_wvel_max              =   8.8015197411937E-04
(PID.TID 0000.0001) %MON advcfl_W_hf_max              =   8.8015197411937E-04
(PID.TID 0000.0001) %MON pe_b_mean                    =  -8.3146680962906E-01
(PID.TID 0000.0001) %MON ke_max                       =   8.8601871398852E-06
(PID.TID 0000.0001) %MON ke_mean                      =   1.8404251657735E-08
(PID.TID 0000.0001) %MON ke_vol                       =   4.2725344138374E+12
(PID.TID 0000.0001) // =======================================================
(PID.TID 0000.0001) // End MONITOR dynamic field statistics
(PID.TID 0000.0001) // =======================================================
(PID.TID 0000.0001) // =======================================================
(PID.TID 0000.0001) // Begin OBCS MONITOR field statistics
(PID.TID 0000.0001) // =======================================================
(PID.TID 0000.0001) %MON obc_N_vVel_max               =   1.4785846853825E-05
(PID.TID 0000.0001) %MON obc_N_vVel_min               =   1.4785846853825E-05
(PID.TID 0000.0001) %MON obc_N_vVel_mean              =   1.4785846853825E-05
(PID.TID 0000.0001) %MON obc_N_vVel_sd                =  -1.6827955586626E-23
(PID.TID 0000.0001) %MON obc_N_vVel_Int               =   9.7586589235248E+02
(PID.TID 0000.0001) // =======================================================
(PID.TID 0000.0001) // End OBCS MONITOR field statistics
(PID.TID 0000.0001) // =======================================================
 cg2d: Sum(rhs),rhsMax =   4.51871447465695E+00  2.99879222978470E+02
(PID.TID 0000.0001)      cg2d_init_res =   6.87739240611329E-06
(PID.TID 0000.0001)      cg2d_iters(min,last) =      -1      75
(PID.TID 0000.0001)      cg2d_last_res =   9.21754025885292E-12
(PID.TID 0000.0001) // =======================================================
(PID.TID 0000.0001) // Begin MONITOR dynamic field statistics
(PID.TID 0000.0001) // =======================================================
(PID.TID 0000.0001) %MON time_tsnumber                =                   327
(PID.TID 0000.0001) %MON time_secondsf                =   3.2700000000000E+04
(PID.TID 0000.0001) %MON dynstat_eta_max              =   5.7968595015480E+00
(PID.TID 0000.0001) %MON dynstat_eta_min              =  -1.4196346775032E+01
(PID.TID 0000.0001) %MON dynstat_eta_mean             =  -2.5093862694846E+00
(PID.TID 0000.0001) %MON dynstat_eta_sd               =   4.9518169440754E+00
(PID.TID 0000.0001) %MON dynstat_eta_del2             =   2.0714043362605E-01
(PID.TID 0000.0001) %MON dynstat_uvel_max             =   2.0371252747604E-03
(PID.TID 0000.0001) %MON dynstat_uvel_min             =  -3.3100224313717E-03
(PID.TID 0000.0001) %MON dynstat_uvel_mean            =  -1.1538356202202E-07
(PID.TID 0000.0001) %MON dynstat_uvel_sd              =   1.2610924009363E-04
(PID.TID 0000.0001) %MON dynstat_uvel_del2            =   3.1125886232207E-07
(PID.TID 0000.0001) %MON dynstat_vvel_max             =   4.0756031144280E-03
(PID.TID 0000.0001) %MON dynstat_vvel_min             =  -2.9042292381423E-03
(PID.TID 0000.0001) %MON dynstat_vvel_mean            =   1.4999078064916E-05
(PID.TID 0000.0001) %MON dynstat_vvel_sd              =   1.4537762375828E-04
(PID.TID 0000.0001) %MON dynstat_vvel_del2            =   4.3480708305255E-07
(PID.TID 0000.0001) %MON dynstat_wvel_max             =   1.7551776671000E-04
(PID.TID 0000.0001) %MON dynstat_wvel_min             =  -1.4893748731116E-04
(PID.TID 0000.0001) %MON dynstat_wvel_mean            =   6.5040103204787E-09
(PID.TID 0000.0001) %MON dynstat_wvel_sd              =   3.2489989360360E-05
(PID.TID 0000.0001) %MON dynstat_wvel_del2            =   1.5623150324474E-07
(PID.TID 0000.0001) %MON dynstat_theta_max            =   1.2000000000000E+00
(PID.TID 0000.0001) %MON dynstat_theta_min            =  -1.0000000000000E+00
(PID.TID 0000.0001) %MON dynstat_theta_mean           =   5.6907368117999E-01
(PID.TID 0000.0001) %MON dynstat_theta_sd             =   8.6856823080934E-01
(PID.TID 0000.0001) %MON dynstat_theta_del2           =   1.1704892014983E-06
(PID.TID 0000.0001) %MON dynstat_salt_max             =   3.4700000000000E+01
(PID.TID 0000.0001) %MON dynstat_salt_min             =   3.4000000000000E+01
(PID.TID 0000.0001) %MON dynstat_salt_mean            =   3.4499243611254E+01
(PID.TID 0000.0001) %MON dynstat_salt_sd              =   2.7636074740634E-01
(PID.TID 0000.0001) %MON dynstat_salt_del2            =   3.9134745406212E-07
(PID.TID 0000.0001) %MON advcfl_uvel_max              =   3.3100224313717E-04
(PID.TID 0000.0001) %MON advcfl_vvel_max              =   4.0756031144280E-04
(PID.TID 0000.0001) %MON advcfl_wvel_max              =   8.7758883354999E-04
(PID.TID 0000.0001) %MON advcfl_W_hf_max              =   8.7758883354999E-04
(PID.TID 0000.0001) %MON pe_b_mean                    =  -8.3147088903714E-01
(PID.TID 0000.0001) %MON ke_max                       =   8.8659619213965E-06
(PID.TID 0000.0001) %MON ke_mean                      =   1.8472269952526E-08
(PID.TID 0000.0001) %MON ke_vol                       =   4.2725343296490E+12
(PID.TID 0000.0001) // =======================================================
(PID.TID 0000.0001) // End MONITOR dynamic field statistics
(PID.TID 0000.0001) // =======================================================
(PID.TID 0000.0001) // =======================================================
(PID.TID 0000.0001) // Begin OBCS MONITOR field statistics
(PID.TID 0000.0001) // =======================================================
(PID.TID 0000.0001) %MON obc_N_vVel_max               =   1.4772422363039E-05
(PID.TID 0000.0001) %MON obc_N_vVel_min               =   1.4772422363038E-05
(PID.TID 0000.0001) %MON obc_N_vVel_mean              =   1.4772422363038E-05
(PID.TID 0000.0001) %MON obc_N_vVel_sd                =   3.8216367815884E-12
(PID.TID 0000.0001) %MON obc_N_vVel_Int               =   9.7497987596053E+02
(PID.TID 0000.0001) // =======================================================
(PID.TID 0000.0001) // End OBCS MONITOR field statistics
(PID.TID 0000.0001) // =======================================================
 cg2d: Sum(rhs),rhsMax =   4.51873877598700E+00  2.99879299897434E+02
(PID.TID 0000.0001)      cg2d_init_res =   6.87168886260003E-06
(PID.TID 0000.0001)      cg2d_iters(min,last) =      -1      75
(PID.TID 0000.0001)      cg2d_last_res =   9.22506714839676E-12
(PID.TID 0000.0001) // =======================================================
(PID.TID 0000.0001) // Begin MONITOR dynamic field statistics
(PID.TID 0000.0001) // =======================================================
(PID.TID 0000.0001) %MON time_tsnumber                =                   328
(PID.TID 0000.0001) %MON time_secondsf                =   3.2800000000000E+04
(PID.TID 0000.0001) %MON dynstat_eta_max              =   5.7968260874960E+00
(PID.TID 0000.0001) %MON dynstat_eta_min              =  -1.4196363727365E+01
(PID.TID 0000.0001) %MON dynstat_eta_mean             =  -2.5094004084488E+00
(PID.TID 0000.0001) %MON dynstat_eta_sd               =   4.9518215657402E+00
(PID.TID 0000.0001) %MON dynstat_eta_del2             =   2.0714043674014E-01
(PID.TID 0000.0001) %MON dynstat_uvel_max             =   2.0393008799322E-03
(PID.TID 0000.0001) %MON dynstat_uvel_min             =  -3.3190452406208E-03
(PID.TID 0000.0001) %MON dynstat_uvel_mean            =  -1.1536078392426E-07
(PID.TID 0000.0001) %MON dynstat_uvel_sd              =   1.2652428362850E-04
(PID.TID 0000.0001) %MON dynstat_uvel_del2            =   3.1101043078163E-07
(PID.TID 0000.0001) %MON dynstat_vvel_max             =   4.0698249258604E-03
(PID.TID 0000.0001) %MON dynstat_vvel_min             =  -2.8977510249693E-03
(PID.TID 0000.0001) %MON dynstat_vvel_mean            =   1.4981629284414E-05
(PID.TID 0000.0001) %MON dynstat_vvel_sd              =   1.4549763137451E-04
(PID.TID 0000.0001) %MON dynstat_vvel_del2            =   4.3398525317068E-07
(PID.TID 0000.0001) %MON dynstat_wvel_max             =   1.7500252213151E-04
(PID.TID 0000.0001) %MON dynstat_wvel_min             =  -1.4710843894324E-04
(PID.TID 0000.0001) %MON dynstat_wvel_mean            =   6.4750770654309E-09
(PID.TID 0000.0001) %MON dynstat_wvel_sd              =   3.2424573261095E-05
(PID.TID 0000.0001) %MON dynstat_wvel_del2            =   1.5582905136396E-07
(PID.TID 0000.0001) %MON dynstat_theta_max            =   1.2000000000000E+00
(PID.TID 0000.0001) %MON dynstat_theta_min            =  -1.0000000000000E+00
(PID.TID 0000.0001) %MON dynstat_theta_mean           =   5.6907341684666E-01
(PID.TID 0000.0001) %MON dynstat_theta_sd             =   8.6856809372059E-01
(PID.TID 0000.0001) %MON dynstat_theta_del2           =   1.1679696386020E-06
(PID.TID 0000.0001) %MON dynstat_salt_max             =   3.4700000000000E+01
(PID.TID 0000.0001) %MON dynstat_salt_min             =   3.4000000000000E+01
(PID.TID 0000.0001) %MON dynstat_salt_mean            =   3.4499243505428E+01
(PID.TID 0000.0001) %MON dynstat_salt_sd              =   2.7636069775699E-01
(PID.TID 0000.0001) %MON dynstat_salt_del2            =   3.9070420870095E-07
(PID.TID 0000.0001) %MON advcfl_uvel_max              =   3.3190452406208E-04
(PID.TID 0000.0001) %MON advcfl_vvel_max              =   4.0698249258604E-04
(PID.TID 0000.0001) %MON advcfl_wvel_max              =   8.7501261065754E-04
(PID.TID 0000.0001) %MON advcfl_W_hf_max              =   8.7501261065754E-04
(PID.TID 0000.0001) %MON pe_b_mean                    =  -8.3147496346089E-01
(PID.TID 0000.0001) %MON ke_max                       =   8.8714270251014E-06
(PID.TID 0000.0001) %MON ke_mean                      =   1.8540850413191E-08
(PID.TID 0000.0001) %MON ke_vol                       =   4.2725342455593E+12
(PID.TID 0000.0001) // =======================================================
(PID.TID 0000.0001) // End MONITOR dynamic field statistics
(PID.TID 0000.0001) // =======================================================
(PID.TID 0000.0001) // =======================================================
(PID.TID 0000.0001) // Begin OBCS MONITOR field statistics
(PID.TID 0000.0001) // =======================================================
(PID.TID 0000.0001) %MON obc_N_vVel_max               =   1.4758190266615E-05
(PID.TID 0000.0001) %MON obc_N_vVel_min               =   1.4758190266614E-05
(PID.TID 0000.0001) %MON obc_N_vVel_mean              =   1.4758190266614E-05
(PID.TID 0000.0001) %MON obc_N_vVel_sd                =   4.9240970446835E-12
(PID.TID 0000.0001) %MON obc_N_vVel_Int               =   9.7404055759652E+02
(PID.TID 0000.0001) // =======================================================
(PID.TID 0000.0001) // End OBCS MONITOR field statistics
(PID.TID 0000.0001) // =======================================================
 cg2d: Sum(rhs),rhsMax =   4.51876304444035E+00  2.99879376848750E+02
(PID.TID 0000.0001)      cg2d_init_res =   6.86855187685790E-06
(PID.TID 0000.0001)      cg2d_iters(min,last) =      -1      75
(PID.TID 0000.0001)      cg2d_last_res =   9.22840340658855E-12
(PID.TID 0000.0001) // =======================================================
(PID.TID 0000.0001) // Begin MONITOR dynamic field statistics
(PID.TID 0000.0001) // =======================================================
(PID.TID 0000.0001) %MON time_tsnumber                =                   329
(PID.TID 0000.0001) %MON time_secondsf                =   3.2900000000000E+04
(PID.TID 0000.0001) %MON dynstat_eta_max              =   5.7967926948420E+00
(PID.TID 0000.0001) %MON dynstat_eta_min              =  -1.4196380643528E+01
(PID.TID 0000.0001) %MON dynstat_eta_mean             =  -2.5094145294332E+00
(PID.TID 0000.0001) %MON dynstat_eta_sd               =   4.9518261817596E+00
(PID.TID 0000.0001) %MON dynstat_eta_del2             =   2.0714043989257E-01
(PID.TID 0000.0001) %MON dynstat_uvel_max             =   2.0414009602208E-03
(PID.TID 0000.0001) %MON dynstat_uvel_min             =  -3.3279913033443E-03
(PID.TID 0000.0001) %MON dynstat_uvel_mean            =  -1.1536675828625E-07
(PID.TID 0000.0001) %MON dynstat_uvel_sd              =   1.2694012138868E-04
(PID.TID 0000.0001) %MON dynstat_uvel_del2            =   3.1076688800494E-07
(PID.TID 0000.0001) %MON dynstat_vvel_max             =   4.0639521367076E-03
(PID.TID 0000.0001) %MON dynstat_vvel_min             =  -2.8912184968393E-03
(PID.TID 0000.0001) %MON dynstat_vvel_mean            =   1.4964162221425E-05
(PID.TID 0000.0001) %MON dynstat_vvel_sd              =   1.4561951591916E-04
(PID.TID 0000.0001) %MON dynstat_vvel_del2            =   4.3321300957297E-07
(PID.TID 0000.0001) %MON dynstat_wvel_max             =   1.7448469574435E-04
(PID.TID 0000.0001) %MON dynstat_wvel_min             =  -1.5416219495393E-04
(PID.TID 0000.0001) %MON dynstat_wvel_mean            =   6.4501971445584E-09
(PID.TID 0000.0001) %MON dynstat_wvel_sd              =   3.2363095518025E-05
(PID.TID 0000.0001) %MON dynstat_wvel_del2            =   1.5548554272663E-07
(PID.TID 0000.0001) %MON dynstat_theta_max            =   1.2000000000000E+00
(PID.TID 0000.0001) %MON dynstat_theta_min            =  -1.0000000000000E+00
(PID.TID 0000.0001) %MON dynstat_theta_mean           =   5.6907315229292E-01
(PID.TID 0000.0001) %MON dynstat_theta_sd             =   8.6856795655042E-01
(PID.TID 0000.0001) %MON dynstat_theta_del2           =   1.1654298380113E-06
(PID.TID 0000.0001) %MON dynstat_salt_max             =   3.4700000000000E+01
(PID.TID 0000.0001) %MON dynstat_salt_min             =   3.4000000000000E+01
(PID.TID 0000.0001) %MON dynstat_salt_mean            =   3.4499243399513E+01
(PID.TID 0000.0001) %MON dynstat_salt_sd              =   2.7636064807114E-01
(PID.TID 0000.0001) %MON dynstat_salt_del2            =   3.9005550268209E-07
(PID.TID 0000.0001) %MON advcfl_uvel_max              =   3.3279913033443E-04
(PID.TID 0000.0001) %MON advcfl_vvel_max              =   4.0639521367076E-04
(PID.TID 0000.0001) %MON advcfl_wvel_max              =   8.7242347872176E-04
(PID.TID 0000.0001) %MON advcfl_W_hf_max              =   8.7242347872176E-04
(PID.TID 0000.0001) %MON pe_b_mean                    =  -8.3147903291643E-01
(PID.TID 0000.0001) %MON ke_max                       =   8.8765851638701E-06
(PID.TID 0000.0001) %MON ke_mean                      =   1.8609986309266E-08
(PID.TID 0000.0001) %MON ke_vol                       =   4.2725341615738E+12
(PID.TID 0000.0001) // =======================================================
(PID.TID 0000.0001) // End MONITOR dynamic field statistics
(PID.TID 0000.0001) // =======================================================
(PID.TID 0000.0001) // =======================================================
(PID.TID 0000.0001) // Begin OBCS MONITOR field statistics
(PID.TID 0000.0001) // =======================================================
(PID.TID 0000.0001) %MON obc_N_vVel_max               =   1.4743601175770E-05
(PID.TID 0000.0001) %MON obc_N_vVel_min               =   1.4743601175769E-05
(PID.TID 0000.0001) %MON obc_N_vVel_mean              =   1.4743601175769E-05
(PID.TID 0000.0001) %MON obc_N_vVel_sd                =   4.1179124028246E-12
(PID.TID 0000.0001) %MON obc_N_vVel_Int               =   9.7307767760077E+02
(PID.TID 0000.0001) // =======================================================
(PID.TID 0000.0001) // End OBCS MONITOR field statistics
(PID.TID 0000.0001) // =======================================================
 cg2d: Sum(rhs),rhsMax =   4.51878728002055E+00  2.99879453839128E+02
(PID.TID 0000.0001)      cg2d_init_res =   6.86774004896739E-06
(PID.TID 0000.0001)      cg2d_iters(min,last) =      -1      75
(PID.TID 0000.0001)      cg2d_last_res =   9.22323878673159E-12
(PID.TID 0000.0001) // =======================================================
(PID.TID 0000.0001) // Begin MONITOR dynamic field statistics
(PID.TID 0000.0001) // =======================================================
(PID.TID 0000.0001) %MON time_tsnumber                =                   330
(PID.TID 0000.0001) %MON time_secondsf                =   3.3000000000000E+04
(PID.TID 0000.0001) %MON dynstat_eta_max              =   5.7967593223944E+00
(PID.TID 0000.0001) %MON dynstat_eta_min              =  -1.4196397524226E+01
(PID.TID 0000.0001) %MON dynstat_eta_mean             =  -2.5094286324959E+00
(PID.TID 0000.0001) %MON dynstat_eta_sd               =   4.9518307925548E+00
(PID.TID 0000.0001) %MON dynstat_eta_del2             =   2.0714044308455E-01
(PID.TID 0000.0001) %MON dynstat_uvel_max             =   2.0434254987902E-03
(PID.TID 0000.0001) %MON dynstat_uvel_min             =  -3.3368603367865E-03
(PID.TID 0000.0001) %MON dynstat_uvel_mean            =  -1.1540044796370E-07
(PID.TID 0000.0001) %MON dynstat_uvel_sd              =   1.2735673416346E-04
(PID.TID 0000.0001) %MON dynstat_uvel_del2            =   3.1052825408263E-07
(PID.TID 0000.0001) %MON dynstat_vvel_max             =   4.0579859432235E-03
(PID.TID 0000.0001) %MON dynstat_vvel_min             =  -2.8846315767446E-03
(PID.TID 0000.0001) %MON dynstat_vvel_mean            =   1.4947191850661E-05
(PID.TID 0000.0001) %MON dynstat_vvel_sd              =   1.4574294409321E-04
(PID.TID 0000.0001) %MON dynstat_vvel_del2            =   4.3248115579740E-07
(PID.TID 0000.0001) %MON dynstat_wvel_max             =   1.7396432231076E-04
(PID.TID 0000.0001) %MON dynstat_wvel_min             =  -1.6331296629131E-04
(PID.TID 0000.0001) %MON dynstat_wvel_mean            =   6.4299462698543E-09
(PID.TID 0000.0001) %MON dynstat_wvel_sd              =   3.2304864756872E-05
(PID.TID 0000.0001) %MON dynstat_wvel_del2            =   1.5518925869910E-07
(PID.TID 0000.0001) %MON dynstat_theta_max            =   1.2000000000000E+00
(PID.TID 0000.0001) %MON dynstat_theta_min            =  -1.0000000000000E+00
(PID.TID 0000.0001) %MON dynstat_theta_mean           =   5.6907288751419E-01
(PID.TID 0000.0001) %MON dynstat_theta_sd             =   8.6856781931355E-01
(PID.TID 0000.0001) %MON dynstat_theta_del2           =   1.1628814523222E-06
(PID.TID 0000.0001) %MON dynstat_salt_max             =   3.4700000000000E+01
(PID.TID 0000.0001) %MON dynstat_salt_min             =   3.4000000000000E+01
(PID.TID 0000.0001) %MON dynstat_salt_mean            =   3.4499243293509E+01
(PID.TID 0000.0001) %MON dynstat_salt_sd              =   2.7636059835294E-01
(PID.TID 0000.0001) %MON dynstat_salt_del2            =   3.8940484389509E-07
(PID.TID 0000.0001) %MON advcfl_uvel_max              =   3.3368603367865E-04
(PID.TID 0000.0001) %MON advcfl_vvel_max              =   4.0579859432235E-04
(PID.TID 0000.0001) %MON advcfl_wvel_max              =   8.6982161155378E-04
(PID.TID 0000.0001) %MON advcfl_W_hf_max              =   8.6982161155378E-04
(PID.TID 0000.0001) %MON pe_b_mean                    =  -8.3148309754623E-01
(PID.TID 0000.0001) %MON ke_max                       =   8.8814389647288E-06
(PID.TID 0000.0001) %MON ke_mean                      =   1.8679635975272E-08
(PID.TID 0000.0001) %MON ke_vol                       =   4.2725340776952E+12
(PID.TID 0000.0001) // =======================================================
(PID.TID 0000.0001) // End MONITOR dynamic field statistics
(PID.TID 0000.0001) // =======================================================
(PID.TID 0000.0001) // =======================================================
(PID.TID 0000.0001) // Begin OBCS MONITOR field statistics
(PID.TID 0000.0001) // =======================================================
(PID.TID 0000.0001) %MON obc_N_vVel_max               =   1.4729098738276E-05
(PID.TID 0000.0001) %MON obc_N_vVel_min               =   1.4729098738275E-05
(PID.TID 0000.0001) %MON obc_N_vVel_mean              =   1.4729098738275E-05
(PID.TID 0000.0001) %MON obc_N_vVel_sd                =   1.6474787965068E-12
(PID.TID 0000.0001) %MON obc_N_vVel_Int               =   9.7212051672617E+02
(PID.TID 0000.0001) // =======================================================
(PID.TID 0000.0001) // End OBCS MONITOR field statistics
(PID.TID 0000.0001) // =======================================================
 cg2d: Sum(rhs),rhsMax =   4.51881148361833E+00  2.99879530873543E+02
(PID.TID 0000.0001)      cg2d_init_res =   6.86882594412322E-06
(PID.TID 0000.0001)      cg2d_iters(min,last) =      -1      75
(PID.TID 0000.0001)      cg2d_last_res =   9.20337158226957E-12
(PID.TID 0000.0001) // =======================================================
(PID.TID 0000.0001) // Begin MONITOR dynamic field statistics
(PID.TID 0000.0001) // =======================================================
(PID.TID 0000.0001) %MON time_tsnumber                =                   331
(PID.TID 0000.0001) %MON time_secondsf                =   3.3100000000000E+04
(PID.TID 0000.0001) %MON dynstat_eta_max              =   5.7967259686003E+00
(PID.TID 0000.0001) %MON dynstat_eta_min              =  -1.4196414356609E+01
(PID.TID 0000.0001) %MON dynstat_eta_mean             =  -2.5094427181730E+00
(PID.TID 0000.0001) %MON dynstat_eta_sd               =   4.9518353986667E+00
(PID.TID 0000.0001) %MON dynstat_eta_del2             =   2.0714044631649E-01
(PID.TID 0000.0001) %MON dynstat_uvel_max             =   2.0453744841214E-03
(PID.TID 0000.0001) %MON dynstat_uvel_min             =  -3.3456520629736E-03
(PID.TID 0000.0001) %MON dynstat_uvel_mean            =  -1.1546011661226E-07
(PID.TID 0000.0001) %MON dynstat_uvel_sd              =   1.2777410273580E-04
(PID.TID 0000.0001) %MON dynstat_uvel_del2            =   3.1029455086074E-07
(PID.TID 0000.0001) %MON dynstat_vvel_max             =   4.0519274944195E-03
(PID.TID 0000.0001) %MON dynstat_vvel_min             =  -2.8779902351372E-03
(PID.TID 0000.0001) %MON dynstat_vvel_mean            =   1.4931199662530E-05
(PID.TID 0000.0001) %MON dynstat_vvel_sd              =   1.4586739545179E-04
(PID.TID 0000.0001) %MON dynstat_vvel_del2            =   4.3177587567295E-07
(PID.TID 0000.0001) %MON dynstat_wvel_max             =   1.7344143668907E-04
(PID.TID 0000.0001) %MON dynstat_wvel_min             =  -1.7006401137143E-04
(PID.TID 0000.0001) %MON dynstat_wvel_mean            =   6.4147502388662E-09
(PID.TID 0000.0001) %MON dynstat_wvel_sd              =   3.2248790702541E-05
(PID.TID 0000.0001) %MON dynstat_wvel_del2            =   1.5492253275740E-07
(PID.TID 0000.0001) %MON dynstat_theta_max            =   1.2000000000000E+00
(PID.TID 0000.0001) %MON dynstat_theta_min            =  -1.0000000000000E+00
(PID.TID 0000.0001) %MON dynstat_theta_mean           =   5.6907262250687E-01
(PID.TID 0000.0001) %MON dynstat_theta_sd             =   8.6856768194537E-01
(PID.TID 0000.0001) %MON dynstat_theta_del2           =   1.1603398553267E-06
(PID.TID 0000.0001) %MON dynstat_salt_max             =   3.4700000000000E+01
(PID.TID 0000.0001) %MON dynstat_salt_min             =   3.4000000000000E+01
(PID.TID 0000.0001) %MON dynstat_salt_mean            =   3.4499243187414E+01
(PID.TID 0000.0001) %MON dynstat_salt_sd              =   2.7636054858187E-01
(PID.TID 0000.0001) %MON dynstat_salt_del2            =   3.8875686942861E-07
(PID.TID 0000.0001) %MON advcfl_uvel_max              =   3.3456520629736E-04
(PID.TID 0000.0001) %MON advcfl_vvel_max              =   4.0519274944195E-04
(PID.TID 0000.0001) %MON advcfl_wvel_max              =   8.6720718344534E-04
(PID.TID 0000.0001) %MON advcfl_W_hf_max              =   8.6720718344534E-04
(PID.TID 0000.0001) %MON pe_b_mean                    =  -8.3148715761306E-01
(PID.TID 0000.0001) %MON ke_max                       =   8.8859909150217E-06
(PID.TID 0000.0001) %MON ke_mean                      =   1.8749729730563E-08
(PID.TID 0000.0001) %MON ke_vol                       =   4.2725339939230E+12
(PID.TID 0000.0001) // =======================================================
(PID.TID 0000.0001) // End MONITOR dynamic field statistics
(PID.TID 0000.0001) // =======================================================
(PID.TID 0000.0001) // =======================================================
(PID.TID 0000.0001) // Begin OBCS MONITOR field statistics
(PID.TID 0000.0001) // =======================================================
(PID.TID 0000.0001) %MON obc_N_vVel_max               =   1.4715107196727E-05
(PID.TID 0000.0001) %MON obc_N_vVel_min               =   1.4715107196727E-05
(PID.TID 0000.0001) %MON obc_N_vVel_mean              =   1.4715107196727E-05
(PID.TID 0000.0001) %MON obc_N_vVel_sd                =  -5.0664812518873E-24
(PID.TID 0000.0001) %MON obc_N_vVel_Int               =   9.7119707498399E+02
(PID.TID 0000.0001) // =======================================================
(PID.TID 0000.0001) // End OBCS MONITOR field statistics
(PID.TID 0000.0001) // =======================================================
 cg2d: Sum(rhs),rhsMax =   4.51883565695253E+00  2.99879607954818E+02
(PID.TID 0000.0001)      cg2d_init_res =   6.87124441536832E-06
(PID.TID 0000.0001)      cg2d_iters(min,last) =      -1      75
(PID.TID 0000.0001)      cg2d_last_res =   9.17393875024134E-12
(PID.TID 0000.0001) // =======================================================
(PID.TID 0000.0001) // Begin MONITOR dynamic field statistics
(PID.TID 0000.0001) // =======================================================
(PID.TID 0000.0001) %MON time_tsnumber                =                   332
(PID.TID 0000.0001) %MON time_secondsf                =   3.3200000000000E+04
(PID.TID 0000.0001) %MON dynstat_eta_max              =   5.7966926316099E+00
(PID.TID 0000.0001) %MON dynstat_eta_min              =  -1.4196431144202E+01
(PID.TID 0000.0001) %MON dynstat_eta_mean             =  -2.5094567874429E+00
(PID.TID 0000.0001) %MON dynstat_eta_sd               =   4.9518400007364E+00
(PID.TID 0000.0001) %MON dynstat_eta_del2             =   2.0714044958778E-01
(PID.TID 0000.0001) %MON dynstat_uvel_max             =   2.0472479099282E-03
(PID.TID 0000.0001) %MON dynstat_uvel_min             =  -3.3543662088121E-03
(PID.TID 0000.0001) %MON dynstat_uvel_mean            =  -1.1554342226476E-07
(PID.TID 0000.0001) %MON dynstat_uvel_sd              =   1.2819220776243E-04
(PID.TID 0000.0001) %MON dynstat_uvel_del2            =   3.1006580101207E-07
(PID.TID 0000.0001) %MON dynstat_vvel_max             =   4.0457778759642E-03
(PID.TID 0000.0001) %MON dynstat_vvel_min             =  -2.8712945057281E-03
(PID.TID 0000.0001) %MON dynstat_vvel_mean            =   1.4916620865529E-05
(PID.TID 0000.0001) %MON dynstat_vvel_sd              =   1.4599223730392E-04
(PID.TID 0000.0001) %MON dynstat_vvel_del2            =   4.3108068434189E-07
(PID.TID 0000.0001) %MON dynstat_wvel_max             =   1.7291607390516E-04
(PID.TID 0000.0001) %MON dynstat_wvel_min             =  -1.7430288762295E-04
(PID.TID 0000.0001) %MON dynstat_wvel_mean            =   6.4048704960373E-09
(PID.TID 0000.0001) %MON dynstat_wvel_sd              =   3.2193540004439E-05
(PID.TID 0000.0001) %MON dynstat_wvel_del2            =   1.5466427323506E-07
(PID.TID 0000.0001) %MON dynstat_theta_max            =   1.2000000000000E+00
(PID.TID 0000.0001) %MON dynstat_theta_min            =  -1.0000000000000E+00
(PID.TID 0000.0001) %MON dynstat_theta_mean           =   5.6907235726802E-01
(PID.TID 0000.0001) %MON dynstat_theta_sd             =   8.6856754438990E-01
(PID.TID 0000.0001) %MON dynstat_theta_del2           =   1.1578223426303E-06
(PID.TID 0000.0001) %MON dynstat_salt_max             =   3.4700000000000E+01
(PID.TID 0000.0001) %MON dynstat_salt_min             =   3.4000000000000E+01
(PID.TID 0000.0001) %MON dynstat_salt_mean            =   3.4499243081228E+01
(PID.TID 0000.0001) %MON dynstat_salt_sd              =   2.7636049873959E-01
(PID.TID 0000.0001) %MON dynstat_salt_del2            =   3.8811684491120E-07
(PID.TID 0000.0001) %MON advcfl_uvel_max              =   3.3543662088121E-04
(PID.TID 0000.0001) %MON advcfl_vvel_max              =   4.0457778759642E-04
(PID.TID 0000.0001) %MON advcfl_wvel_max              =   8.7151443811475E-04
(PID.TID 0000.0001) %MON advcfl_W_hf_max              =   8.7151443811475E-04
(PID.TID 0000.0001) %MON pe_b_mean                    =  -8.3149121348570E-01
(PID.TID 0000.0001) %MON ke_max                       =   8.8902433146357E-06
(PID.TID 0000.0001) %MON ke_mean                      =   1.8820180492771E-08
(PID.TID 0000.0001) %MON ke_vol                       =   4.2725339102541E+12
(PID.TID 0000.0001) // =======================================================
(PID.TID 0000.0001) // End MONITOR dynamic field statistics
(PID.TID 0000.0001) // =======================================================
(PID.TID 0000.0001) // =======================================================
(PID.TID 0000.0001) // Begin OBCS MONITOR field statistics
(PID.TID 0000.0001) // =======================================================
(PID.TID 0000.0001) %MON obc_N_vVel_max               =   1.4702020344347E-05
(PID.TID 0000.0001) %MON obc_N_vVel_min               =   1.4702020344347E-05
(PID.TID 0000.0001) %MON obc_N_vVel_mean              =   1.4702020344347E-05
(PID.TID 0000.0001) %MON obc_N_vVel_sd                =  -7.2119809656967E-24
(PID.TID 0000.0001) %MON obc_N_vVel_Int               =   9.7033334272693E+02
(PID.TID 0000.0001) // =======================================================
(PID.TID 0000.0001) // End OBCS MONITOR field statistics
(PID.TID 0000.0001) // =======================================================
 cg2d: Sum(rhs),rhsMax =   4.51885980249308E+00  2.99879685083406E+02
(PID.TID 0000.0001)      cg2d_init_res =   6.87433851528202E-06
(PID.TID 0000.0001)      cg2d_iters(min,last) =      -1      75
(PID.TID 0000.0001)      cg2d_last_res =   9.15095425452643E-12
(PID.TID 0000.0001) // =======================================================
(PID.TID 0000.0001) // Begin MONITOR dynamic field statistics
(PID.TID 0000.0001) // =======================================================
(PID.TID 0000.0001) %MON time_tsnumber                =                   333
(PID.TID 0000.0001) %MON time_secondsf                =   3.3300000000000E+04
(PID.TID 0000.0001) %MON dynstat_eta_max              =   5.7966593089398E+00
(PID.TID 0000.0001) %MON dynstat_eta_min              =  -1.4196447891081E+01
(PID.TID 0000.0001) %MON dynstat_eta_mean             =  -2.5094708416809E+00
(PID.TID 0000.0001) %MON dynstat_eta_sd               =   4.9518445995050E+00
(PID.TID 0000.0001) %MON dynstat_eta_del2             =   2.0714045289860E-01
(PID.TID 0000.0001) %MON dynstat_uvel_max             =   2.0490457749411E-03
(PID.TID 0000.0001) %MON dynstat_uvel_min             =  -3.3630025062230E-03
(PID.TID 0000.0001) %MON dynstat_uvel_mean            =  -1.1564744699971E-07
(PID.TID 0000.0001) %MON dynstat_uvel_sd              =   1.2861102968056E-04
(PID.TID 0000.0001) %MON dynstat_uvel_del2            =   3.0984202687744E-07
(PID.TID 0000.0001) %MON dynstat_vvel_max             =   4.0395380961247E-03
(PID.TID 0000.0001) %MON dynstat_vvel_min             =  -2.8645444993396E-03
(PID.TID 0000.0001) %MON dynstat_vvel_mean            =   1.4903833269628E-05
(PID.TID 0000.0001) %MON dynstat_vvel_sd              =   1.4611681159575E-04
(PID.TID 0000.0001) %MON dynstat_vvel_del2            =   4.3037868748058E-07
(PID.TID 0000.0001) %MON dynstat_wvel_max             =   1.7238826938886E-04
(PID.TID 0000.0001) %MON dynstat_wvel_min             =  -1.7595505605138E-04
(PID.TID 0000.0001) %MON dynstat_wvel_mean            =   6.4004036514998E-09
(PID.TID 0000.0001) %MON dynstat_wvel_sd              =   3.2137720475400E-05
(PID.TID 0000.0001) %MON dynstat_wvel_del2            =   1.5439287010712E-07
(PID.TID 0000.0001) %MON dynstat_theta_max            =   1.2000000000000E+00
(PID.TID 0000.0001) %MON dynstat_theta_min            =  -1.0000000000000E+00
(PID.TID 0000.0001) %MON dynstat_theta_mean           =   5.6907209179548E-01
(PID.TID 0000.0001) %MON dynstat_theta_sd             =   8.6856740661505E-01
(PID.TID 0000.0001) %MON dynstat_theta_del2           =   1.1553445880982E-06
(PID.TID 0000.0001) %MON dynstat_salt_max             =   3.4700000000000E+01
(PID.TID 0000.0001) %MON dynstat_salt_min             =   3.4000000000000E+01
(PID.TID 0000.0001) %MON dynstat_salt_mean            =   3.4499242974948E+01
(PID.TID 0000.0001) %MON dynstat_salt_sd              =   2.7636044881582E-01
(PID.TID 0000.0001) %MON dynstat_salt_del2            =   3.8748943280747E-07
(PID.TID 0000.0001) %MON advcfl_uvel_max              =   3.3630025062230E-04
(PID.TID 0000.0001) %MON advcfl_vvel_max              =   4.0395380961247E-04
(PID.TID 0000.0001) %MON advcfl_wvel_max              =   8.7977528025689E-04
(PID.TID 0000.0001) %MON advcfl_W_hf_max              =   8.7977528025689E-04
(PID.TID 0000.0001) %MON pe_b_mean                    =  -8.3149526562684E-01
(PID.TID 0000.0001) %MON ke_max                       =   8.8941982350917E-06
(PID.TID 0000.0001) %MON ke_mean                      =   1.8890896232175E-08
(PID.TID 0000.0001) %MON ke_vol                       =   4.2725338266826E+12
(PID.TID 0000.0001) // =======================================================
(PID.TID 0000.0001) // End MONITOR dynamic field statistics
(PID.TID 0000.0001) // =======================================================
(PID.TID 0000.0001) // =======================================================
(PID.TID 0000.0001) // Begin OBCS MONITOR field statistics
(PID.TID 0000.0001) // =======================================================
(PID.TID 0000.0001) %MON obc_N_vVel_max               =   1.4690190841076E-05
(PID.TID 0000.0001) %MON obc_N_vVel_min               =   1.4690190841076E-05
(PID.TID 0000.0001) %MON obc_N_vVel_mean              =   1.4690190841076E-05
(PID.TID 0000.0001) %MON obc_N_vVel_sd                =  -2.0421021372403E-23
(PID.TID 0000.0001) %MON obc_N_vVel_Int               =   9.6955259551102E+02
(PID.TID 0000.0001) // =======================================================
(PID.TID 0000.0001) // End OBCS MONITOR field statistics
(PID.TID 0000.0001) // =======================================================
 cg2d: Sum(rhs),rhsMax =   4.51888392330459E+00  2.99879762257207E+02
(PID.TID 0000.0001)      cg2d_init_res =   6.87743039809418E-06
(PID.TID 0000.0001)      cg2d_iters(min,last) =      -1      75
(PID.TID 0000.0001)      cg2d_last_res =   9.14900747931330E-12
(PID.TID 0000.0001) // =======================================================
(PID.TID 0000.0001) // Begin MONITOR dynamic field statistics
(PID.TID 0000.0001) // =======================================================
(PID.TID 0000.0001) %MON time_tsnumber                =                   334
(PID.TID 0000.0001) %MON time_secondsf                =   3.3400000000000E+04
(PID.TID 0000.0001) %MON dynstat_eta_max              =   5.7966259986230E+00
(PID.TID 0000.0001) %MON dynstat_eta_min              =  -1.4196464601904E+01
(PID.TID 0000.0001) %MON dynstat_eta_mean             =  -2.5094848825713E+00
(PID.TID 0000.0001) %MON dynstat_eta_sd               =   4.9518491957643E+00
(PID.TID 0000.0001) %MON dynstat_eta_del2             =   2.0714045624937E-01
(PID.TID 0000.0001) %MON dynstat_uvel_max             =   2.0507680827622E-03
(PID.TID 0000.0001) %MON dynstat_uvel_min             =  -3.3715606919772E-03
(PID.TID 0000.0001) %MON dynstat_uvel_mean            =  -1.1576878745823E-07
(PID.TID 0000.0001) %MON dynstat_uvel_sd              =   1.2903054875263E-04
(PID.TID 0000.0001) %MON dynstat_uvel_del2            =   3.0962325092684E-07
(PID.TID 0000.0001) %MON dynstat_vvel_max             =   4.0380569091072E-03
(PID.TID 0000.0001) %MON dynstat_vvel_min             =  -2.8577404148704E-03
(PID.TID 0000.0001) %MON dynstat_vvel_mean            =   1.4893148252565E-05
(PID.TID 0000.0001) %MON dynstat_vvel_sd              =   1.4624052276906E-04
(PID.TID 0000.0001) %MON dynstat_vvel_del2            =   4.2965483307147E-07
(PID.TID 0000.0001) %MON dynstat_wvel_max             =   1.7185805885533E-04
(PID.TID 0000.0001) %MON dynstat_wvel_min             =  -1.7498565697062E-04
(PID.TID 0000.0001) %MON dynstat_wvel_mean            =   6.4012850482000E-09
(PID.TID 0000.0001) %MON dynstat_wvel_sd              =   3.2080067735346E-05
(PID.TID 0000.0001) %MON dynstat_wvel_del2            =   1.5408906900093E-07
(PID.TID 0000.0001) %MON dynstat_theta_max            =   1.2000000000000E+00
(PID.TID 0000.0001) %MON dynstat_theta_min            =  -1.0000000000000E+00
(PID.TID 0000.0001) %MON dynstat_theta_mean           =   5.6907182608389E-01
(PID.TID 0000.0001) %MON dynstat_theta_sd             =   8.6856726865913E-01
(PID.TID 0000.0001) %MON dynstat_theta_del2           =   1.1529209129362E-06
(PID.TID 0000.0001) %MON dynstat_salt_max             =   3.4700000000000E+01
(PID.TID 0000.0001) %MON dynstat_salt_min             =   3.4000000000000E+01
(PID.TID 0000.0001) %MON dynstat_salt_mean            =   3.4499242868573E+01
(PID.TID 0000.0001) %MON dynstat_salt_sd              =   2.7636039882255E-01
(PID.TID 0000.0001) %MON dynstat_salt_del2            =   3.8687895521534E-07
(PID.TID 0000.0001) %MON advcfl_uvel_max              =   3.3715606919772E-04
(PID.TID 0000.0001) %MON advcfl_vvel_max              =   4.0380569091072E-04
(PID.TID 0000.0001) %MON advcfl_wvel_max              =   8.7492828485311E-04
(PID.TID 0000.0001) %MON advcfl_W_hf_max              =   8.7492828485311E-04
(PID.TID 0000.0001) %MON pe_b_mean                    =  -8.3149931456338E-01
(PID.TID 0000.0001) %MON ke_max                       =   8.8978574880309E-06
(PID.TID 0000.0001) %MON ke_mean                      =   1.8961792682284E-08
(PID.TID 0000.0001) %MON ke_vol                       =   4.2725337432004E+12
(PID.TID 0000.0001) // =======================================================
(PID.TID 0000.0001) // End MONITOR dynamic field statistics
(PID.TID 0000.0001) // =======================================================
(PID.TID 0000.0001) // =======================================================
(PID.TID 0000.0001) // Begin OBCS MONITOR field statistics
(PID.TID 0000.0001) // =======================================================
(PID.TID 0000.0001) %MON obc_N_vVel_max               =   1.4679921251787E-05
(PID.TID 0000.0001) %MON obc_N_vVel_min               =   1.4679921251787E-05
(PID.TID 0000.0001) %MON obc_N_vVel_mean              =   1.4679921251787E-05
(PID.TID 0000.0001) %MON obc_N_vVel_sd                =   4.7449786404080E-12
(PID.TID 0000.0001) %MON obc_N_vVel_Int               =   9.6887480261793E+02
(PID.TID 0000.0001) // =======================================================
(PID.TID 0000.0001) // End OBCS MONITOR field statistics
(PID.TID 0000.0001) // =======================================================
 cg2d: Sum(rhs),rhsMax =   4.51890802302181E+00  2.99879839471547E+02
(PID.TID 0000.0001)      cg2d_init_res =   6.87992140066716E-06
(PID.TID 0000.0001)      cg2d_iters(min,last) =      -1      75
(PID.TID 0000.0001)      cg2d_last_res =   9.16992525881317E-12
(PID.TID 0000.0001) // =======================================================
(PID.TID 0000.0001) // Begin MONITOR dynamic field statistics
(PID.TID 0000.0001) // =======================================================
(PID.TID 0000.0001) %MON time_tsnumber                =                   335
(PID.TID 0000.0001) %MON time_secondsf                =   3.3500000000000E+04
(PID.TID 0000.0001) %MON dynstat_eta_max              =   5.7965926981708E+00
(PID.TID 0000.0001) %MON dynstat_eta_min              =  -1.4196481281760E+01
(PID.TID 0000.0001) %MON dynstat_eta_mean             =  -2.5094989120935E+00
(PID.TID 0000.0001) %MON dynstat_eta_sd               =   4.9518537903500E+00
(PID.TID 0000.0001) %MON dynstat_eta_del2             =   2.0714045964110E-01
(PID.TID 0000.0001) %MON dynstat_uvel_max             =   2.0524148417416E-03
(PID.TID 0000.0001) %MON dynstat_uvel_min             =  -3.3800405079772E-03
(PID.TID 0000.0001) %MON dynstat_uvel_mean            =  -1.1590367966769E-07
(PID.TID 0000.0001) %MON dynstat_uvel_sd              =   1.2945074501538E-04
(PID.TID 0000.0001) %MON dynstat_uvel_del2            =   3.0940949506613E-07
(PID.TID 0000.0001) %MON dynstat_vvel_max             =   4.0466271140156E-03
(PID.TID 0000.0001) %MON dynstat_vvel_min             =  -2.8508825472331E-03
(PID.TID 0000.0001) %MON dynstat_vvel_mean            =   1.4884803971299E-05
(PID.TID 0000.0001) %MON dynstat_vvel_sd              =   1.4636291480862E-04
(PID.TID 0000.0001) %MON dynstat_vvel_del2            =   4.2889786652808E-07
(PID.TID 0000.0001) %MON dynstat_wvel_max             =   1.7132547833601E-04
(PID.TID 0000.0001) %MON dynstat_wvel_min             =  -1.7140065396091E-04
(PID.TID 0000.0001) %MON dynstat_wvel_mean            =   6.4072968843845E-09
(PID.TID 0000.0001) %MON dynstat_wvel_sd              =   3.2019610133318E-05
(PID.TID 0000.0001) %MON dynstat_wvel_del2            =   1.5373844887579E-07
(PID.TID 0000.0001) %MON dynstat_theta_max            =   1.2000000000000E+00
(PID.TID 0000.0001) %MON dynstat_theta_min            =  -1.0000000000000E+00
(PID.TID 0000.0001) %MON dynstat_theta_mean           =   5.6907156013067E-01
(PID.TID 0000.0001) %MON dynstat_theta_sd             =   8.6856713054684E-01
(PID.TID 0000.0001) %MON dynstat_theta_del2           =   1.1505615783327E-06
(PID.TID 0000.0001) %MON dynstat_salt_max             =   3.4700000000000E+01
(PID.TID 0000.0001) %MON dynstat_salt_min             =   3.4000000000000E+01
(PID.TID 0000.0001) %MON dynstat_salt_mean            =   3.4499242762101E+01
(PID.TID 0000.0001) %MON dynstat_salt_sd              =   2.7636034876730E-01
(PID.TID 0000.0001) %MON dynstat_salt_del2            =   3.8628850856455E-07
(PID.TID 0000.0001) %MON advcfl_uvel_max              =   3.3800405079772E-04
(PID.TID 0000.0001) %MON advcfl_vvel_max              =   4.0466271140156E-04
(PID.TID 0000.0001) %MON advcfl_wvel_max              =   8.5700326980457E-04
(PID.TID 0000.0001) %MON advcfl_W_hf_max              =   8.5700326980457E-04
(PID.TID 0000.0001) %MON pe_b_mean                    =  -8.3150336088552E-01
(PID.TID 0000.0001) %MON ke_max                       =   8.9012226028614E-06
(PID.TID 0000.0001) %MON ke_mean                      =   1.9032804561076E-08
(PID.TID 0000.0001) %MON ke_vol                       =   4.2725336597975E+12
(PID.TID 0000.0001) // =======================================================
(PID.TID 0000.0001) // End MONITOR dynamic field statistics
(PID.TID 0000.0001) // =======================================================
(PID.TID 0000.0001) // =======================================================
(PID.TID 0000.0001) // Begin OBCS MONITOR field statistics
(PID.TID 0000.0001) // =======================================================
(PID.TID 0000.0001) %MON obc_N_vVel_max               =   1.4671456921379E-05
(PID.TID 0000.0001) %MON obc_N_vVel_min               =   1.4671456921379E-05
(PID.TID 0000.0001) %MON obc_N_vVel_mean              =   1.4671456921379E-05
(PID.TID 0000.0001) %MON obc_N_vVel_sd                =  -1.2123365852730E-23
(PID.TID 0000.0001) %MON obc_N_vVel_Int               =   9.6831615681103E+02
(PID.TID 0000.0001) // =======================================================
(PID.TID 0000.0001) // End OBCS MONITOR field statistics
(PID.TID 0000.0001) // =======================================================
 cg2d: Sum(rhs),rhsMax =   4.51893210568886E+00  2.99879916719161E+02
(PID.TID 0000.0001)      cg2d_init_res =   6.88129556234975E-06
(PID.TID 0000.0001)      cg2d_iters(min,last) =      -1      75
(PID.TID 0000.0001)      cg2d_last_res =   9.20758226681265E-12
(PID.TID 0000.0001) // =======================================================
(PID.TID 0000.0001) // Begin MONITOR dynamic field statistics
(PID.TID 0000.0001) // =======================================================
(PID.TID 0000.0001) %MON time_tsnumber                =                   336
(PID.TID 0000.0001) %MON time_secondsf                =   3.3600000000000E+04
(PID.TID 0000.0001) %MON dynstat_eta_max              =   5.7965594050151E+00
(PID.TID 0000.0001) %MON dynstat_eta_min              =  -1.4196497936006E+01
(PID.TID 0000.0001) %MON dynstat_eta_mean             =  -2.5095129324324E+00
(PID.TID 0000.0001) %MON dynstat_eta_sd               =   4.9518583840909E+00
(PID.TID 0000.0001) %MON dynstat_eta_del2             =   2.0714046307307E-01
(PID.TID 0000.0001) %MON dynstat_uvel_max             =   2.0539860650428E-03
(PID.TID 0000.0001) %MON dynstat_uvel_min             =  -3.3884417007337E-03
(PID.TID 0000.0001) %MON dynstat_uvel_mean            =  -1.1604813453066E-07
(PID.TID 0000.0001) %MON dynstat_uvel_sd              =   1.2987159821429E-04
(PID.TID 0000.0001) %MON dynstat_uvel_del2            =   3.0920077995734E-07
(PID.TID 0000.0001) %MON dynstat_vvel_max             =   4.0550954126592E-03
(PID.TID 0000.0001) %MON dynstat_vvel_min             =  -2.8439712921413E-03
(PID.TID 0000.0001) %MON dynstat_vvel_mean            =   1.4878960878127E-05
(PID.TID 0000.0001) %MON dynstat_vvel_sd              =   1.4648372847283E-04
(PID.TID 0000.0001) %MON dynstat_vvel_del2            =   4.2810175533092E-07
(PID.TID 0000.0001) %MON dynstat_wvel_max             =   1.7079056433612E-04
(PID.TID 0000.0001) %MON dynstat_wvel_min             =  -1.6524732034876E-04
(PID.TID 0000.0001) %MON dynstat_wvel_mean            =   6.4180779915209E-09
(PID.TID 0000.0001) %MON dynstat_wvel_sd              =   3.1955792204899E-05
(PID.TID 0000.0001) %MON dynstat_wvel_del2            =   1.5333321159340E-07
(PID.TID 0000.0001) %MON dynstat_theta_max            =   1.2000000000000E+00
(PID.TID 0000.0001) %MON dynstat_theta_min            =  -1.0000000000000E+00
(PID.TID 0000.0001) %MON dynstat_theta_mean           =   5.6907129393356E-01
(PID.TID 0000.0001) %MON dynstat_theta_sd             =   8.6856699229453E-01
(PID.TID 0000.0001) %MON dynstat_theta_del2           =   1.1482705205287E-06
(PID.TID 0000.0001) %MON dynstat_salt_max             =   3.4700000000000E+01
(PID.TID 0000.0001) %MON dynstat_salt_min             =   3.4000000000000E+01
(PID.TID 0000.0001) %MON dynstat_salt_mean            =   3.4499242655533E+01
(PID.TID 0000.0001) %MON dynstat_salt_sd              =   2.7636029865520E-01
(PID.TID 0000.0001) %MON dynstat_salt_del2            =   3.8571927581890E-07
(PID.TID 0000.0001) %MON advcfl_uvel_max              =   3.3884417007337E-04
(PID.TID 0000.0001) %MON advcfl_vvel_max              =   4.0550954126592E-04
(PID.TID 0000.0001) %MON advcfl_wvel_max              =   8.5395282168059E-04
(PID.TID 0000.0001) %MON advcfl_W_hf_max              =   8.5395282168059E-04
(PID.TID 0000.0001) %MON pe_b_mean                    =  -8.3150740521821E-01
(PID.TID 0000.0001) %MON ke_max                       =   8.9042948132415E-06
(PID.TID 0000.0001) %MON ke_mean                      =   1.9103893978502E-08
(PID.TID 0000.0001) %MON ke_vol                       =   4.2725335764622E+12
(PID.TID 0000.0001) // =======================================================
(PID.TID 0000.0001) // End MONITOR dynamic field statistics
(PID.TID 0000.0001) // =======================================================
(PID.TID 0000.0001) // =======================================================
(PID.TID 0000.0001) // Begin OBCS MONITOR field statistics
(PID.TID 0000.0001) // =======================================================
(PID.TID 0000.0001) %MON obc_N_vVel_max               =   1.4664980902066E-05
(PID.TID 0000.0001) %MON obc_N_vVel_min               =   1.4664980902066E-05
(PID.TID 0000.0001) %MON obc_N_vVel_mean              =   1.4664980902066E-05
(PID.TID 0000.0001) %MON obc_N_vVel_sd                =   2.5319260943570E-12
(PID.TID 0000.0001) %MON obc_N_vVel_Int               =   9.6788873953636E+02
(PID.TID 0000.0001) // =======================================================
(PID.TID 0000.0001) // End OBCS MONITOR field statistics
(PID.TID 0000.0001) // =======================================================
 cg2d: Sum(rhs),rhsMax =   4.51895617561948E+00  2.99879993990325E+02
(PID.TID 0000.0001)      cg2d_init_res =   6.88118932665666E-06
(PID.TID 0000.0001)      cg2d_iters(min,last) =      -1      75
(PID.TID 0000.0001)      cg2d_last_res =   9.25423478563037E-12
(PID.TID 0000.0001) // =======================================================
(PID.TID 0000.0001) // Begin MONITOR dynamic field statistics
(PID.TID 0000.0001) // =======================================================
(PID.TID 0000.0001) %MON time_tsnumber                =                   337
(PID.TID 0000.0001) %MON time_secondsf                =   3.3700000000000E+04
(PID.TID 0000.0001) %MON dynstat_eta_max              =   5.7965261165409E+00
(PID.TID 0000.0001) %MON dynstat_eta_min              =  -1.4196514570093E+01
(PID.TID 0000.0001) %MON dynstat_eta_mean             =  -2.5095269459024E+00
(PID.TID 0000.0001) %MON dynstat_eta_sd               =   4.9518629778022E+00
(PID.TID 0000.0001) %MON dynstat_eta_del2             =   2.0714046654519E-01
(PID.TID 0000.0001) %MON dynstat_uvel_max             =   2.0554817703220E-03
(PID.TID 0000.0001) %MON dynstat_uvel_min             =  -3.3967640219270E-03
(PID.TID 0000.0001) %MON dynstat_uvel_mean            =  -1.1619808694677E-07
(PID.TID 0000.0001) %MON dynstat_uvel_sd              =   1.3029308780197E-04
(PID.TID 0000.0001) %MON dynstat_uvel_del2            =   3.0899712429028E-07
(PID.TID 0000.0001) %MON dynstat_vvel_max             =   4.0634617702366E-03
(PID.TID 0000.0001) %MON dynstat_vvel_min             =  -2.8370071480550E-03
(PID.TID 0000.0001) %MON dynstat_vvel_mean            =   1.4875699619898E-05
(PID.TID 0000.0001) %MON dynstat_vvel_sd              =   1.4660293068224E-04
(PID.TID 0000.0001) %MON dynstat_vvel_del2            =   4.2726638840843E-07
(PID.TID 0000.0001) %MON dynstat_wvel_max             =   1.7025335379578E-04
(PID.TID 0000.0001) %MON dynstat_wvel_min             =  -1.5661404570601E-04
(PID.TID 0000.0001) %MON dynstat_wvel_mean            =   6.4331391984958E-09
(PID.TID 0000.0001) %MON dynstat_wvel_sd              =   3.1888539691301E-05
(PID.TID 0000.0001) %MON dynstat_wvel_del2            =   1.5287306194154E-07
(PID.TID 0000.0001) %MON dynstat_theta_max            =   1.2000000000000E+00
(PID.TID 0000.0001) %MON dynstat_theta_min            =  -1.0000000000000E+00
(PID.TID 0000.0001) %MON dynstat_theta_mean           =   5.6907102749010E-01
(PID.TID 0000.0001) %MON dynstat_theta_sd             =   8.6856685384990E-01
(PID.TID 0000.0001) %MON dynstat_theta_del2           =   1.1460459141695E-06
(PID.TID 0000.0001) %MON dynstat_salt_max             =   3.4700000000000E+01
(PID.TID 0000.0001) %MON dynstat_salt_min             =   3.4000000000000E+01
(PID.TID 0000.0001) %MON dynstat_salt_mean            =   3.4499242548866E+01
(PID.TID 0000.0001) %MON dynstat_salt_sd              =   2.7636024846939E-01
(PID.TID 0000.0001) %MON dynstat_salt_del2            =   3.8517076768948E-07
(PID.TID 0000.0001) %MON advcfl_uvel_max              =   3.3967640219270E-04
(PID.TID 0000.0001) %MON advcfl_vvel_max              =   4.0634617702366E-04
(PID.TID 0000.0001) %MON advcfl_wvel_max              =   8.5126676897890E-04
(PID.TID 0000.0001) %MON advcfl_W_hf_max              =   8.5126676897890E-04
(PID.TID 0000.0001) %MON pe_b_mean                    =  -8.3151144820136E-01
(PID.TID 0000.0001) %MON ke_max                       =   8.9070750550308E-06
(PID.TID 0000.0001) %MON ke_mean                      =   1.9175054844372E-08
(PID.TID 0000.0001) %MON ke_vol                       =   4.2725334931814E+12
(PID.TID 0000.0001) // =======================================================
(PID.TID 0000.0001) // End MONITOR dynamic field statistics
(PID.TID 0000.0001) // =======================================================
(PID.TID 0000.0001) // =======================================================
(PID.TID 0000.0001) // Begin OBCS MONITOR field statistics
(PID.TID 0000.0001) // =======================================================
(PID.TID 0000.0001) %MON obc_N_vVel_max               =   1.4660610689220E-05
(PID.TID 0000.0001) %MON obc_N_vVel_min               =   1.4660610689219E-05
(PID.TID 0000.0001) %MON obc_N_vVel_mean              =   1.4660610689219E-05
(PID.TID 0000.0001) %MON obc_N_vVel_sd                =   3.2475456594251E-12
(PID.TID 0000.0001) %MON obc_N_vVel_Int               =   9.6760030548848E+02
(PID.TID 0000.0001) // =======================================================
(PID.TID 0000.0001) // End OBCS MONITOR field statistics
(PID.TID 0000.0001) // =======================================================
 cg2d: Sum(rhs),rhsMax =   4.51898023727316E+00  2.99880071273254E+02
(PID.TID 0000.0001)      cg2d_init_res =   6.87937379051640E-06
(PID.TID 0000.0001)      cg2d_iters(min,last) =      -1      75
(PID.TID 0000.0001)      cg2d_last_res =   9.29662065069306E-12
(PID.TID 0000.0001) // =======================================================
(PID.TID 0000.0001) // Begin MONITOR dynamic field statistics
(PID.TID 0000.0001) // =======================================================
(PID.TID 0000.0001) %MON time_tsnumber                =                   338
(PID.TID 0000.0001) %MON time_secondsf                =   3.3800000000000E+04
(PID.TID 0000.0001) %MON dynstat_eta_max              =   5.7964928301630E+00
(PID.TID 0000.0001) %MON dynstat_eta_min              =  -1.4196531189408E+01
(PID.TID 0000.0001) %MON dynstat_eta_mean             =  -2.5095409548813E+00
(PID.TID 0000.0001) %MON dynstat_eta_sd               =   4.9518675722621E+00
(PID.TID 0000.0001) %MON dynstat_eta_del2             =   2.0714047005693E-01
(PID.TID 0000.0001) %MON dynstat_uvel_max             =   2.0569019795905E-03
(PID.TID 0000.0001) %MON dynstat_uvel_min             =  -3.4050072284181E-03
(PID.TID 0000.0001) %MON dynstat_uvel_mean            =  -1.1634945655660E-07
(PID.TID 0000.0001) %MON dynstat_uvel_sd              =   1.3071519291013E-04
(PID.TID 0000.0001) %MON dynstat_uvel_del2            =   3.0879854404414E-07
(PID.TID 0000.0001) %MON dynstat_vvel_max             =   4.0717260689105E-03
(PID.TID 0000.0001) %MON dynstat_vvel_min             =  -2.8299907147353E-03
(PID.TID 0000.0001) %MON dynstat_vvel_mean            =   1.4875021346116E-05
(PID.TID 0000.0001) %MON dynstat_vvel_sd              =   1.4672071380045E-04
(PID.TID 0000.0001) %MON dynstat_vvel_del2            =   4.2639749809559E-07
(PID.TID 0000.0001) %MON dynstat_wvel_max             =   1.6971388404203E-04
(PID.TID 0000.0001) %MON dynstat_wvel_min             =  -1.4837399047806E-04
(PID.TID 0000.0001) %MON dynstat_wvel_mean            =   6.4518795209874E-09
(PID.TID 0000.0001) %MON dynstat_wvel_sd              =   3.1818260885161E-05
(PID.TID 0000.0001) %MON dynstat_wvel_del2            =   1.5236511739615E-07
(PID.TID 0000.0001) %MON dynstat_theta_max            =   1.2000000000000E+00
(PID.TID 0000.0001) %MON dynstat_theta_min            =  -1.0000000000000E+00
(PID.TID 0000.0001) %MON dynstat_theta_mean           =   5.6907076079868E-01
(PID.TID 0000.0001) %MON dynstat_theta_sd             =   8.6856671523276E-01
(PID.TID 0000.0001) %MON dynstat_theta_del2           =   1.1438791786121E-06
(PID.TID 0000.0001) %MON dynstat_salt_max             =   3.4700000000000E+01
(PID.TID 0000.0001) %MON dynstat_salt_min             =   3.4000000000000E+01
(PID.TID 0000.0001) %MON dynstat_salt_mean            =   3.4499242442101E+01
(PID.TID 0000.0001) %MON dynstat_salt_sd              =   2.7636019821596E-01
(PID.TID 0000.0001) %MON dynstat_salt_del2            =   3.8464036453967E-07
(PID.TID 0000.0001) %MON advcfl_uvel_max              =   3.4050072284181E-04
(PID.TID 0000.0001) %MON advcfl_vvel_max              =   4.0717260689105E-04
(PID.TID 0000.0001) %MON advcfl_wvel_max              =   8.4856942021015E-04
(PID.TID 0000.0001) %MON advcfl_W_hf_max              =   8.4856942021015E-04
(PID.TID 0000.0001) %MON pe_b_mean                    =  -8.3151549047321E-01
(PID.TID 0000.0001) %MON ke_max                       =   8.9095639728137E-06
(PID.TID 0000.0001) %MON ke_mean                      =   1.9246312904569E-08
(PID.TID 0000.0001) %MON ke_vol                       =   4.2725334099413E+12
(PID.TID 0000.0001) // =======================================================
(PID.TID 0000.0001) // End MONITOR dynamic field statistics
(PID.TID 0000.0001) // =======================================================
(PID.TID 0000.0001) // =======================================================
(PID.TID 0000.0001) // Begin OBCS MONITOR field statistics
(PID.TID 0000.0001) // =======================================================
(PID.TID 0000.0001) %MON obc_N_vVel_max               =   1.4658396993076E-05
(PID.TID 0000.0001) %MON obc_N_vVel_min               =   1.4658396993076E-05
(PID.TID 0000.0001) %MON obc_N_vVel_mean              =   1.4658396993076E-05
(PID.TID 0000.0001) %MON obc_N_vVel_sd                =  -6.2038545941477E-24
(PID.TID 0000.0001) %MON obc_N_vVel_Int               =   9.6745420154301E+02
(PID.TID 0000.0001) // =======================================================
(PID.TID 0000.0001) // End OBCS MONITOR field statistics
(PID.TID 0000.0001) // =======================================================
 cg2d: Sum(rhs),rhsMax =   4.51900429509199E+00  2.99880148554232E+02
(PID.TID 0000.0001)      cg2d_init_res =   6.87580134837542E-06
(PID.TID 0000.0001)      cg2d_iters(min,last) =      -1      75
(PID.TID 0000.0001)      cg2d_last_res =   9.31850843800233E-12
(PID.TID 0000.0001) // =======================================================
(PID.TID 0000.0001) // Begin MONITOR dynamic field statistics
(PID.TID 0000.0001) // =======================================================
(PID.TID 0000.0001) %MON time_tsnumber                =                   339
(PID.TID 0000.0001) %MON time_secondsf                =   3.3900000000000E+04
(PID.TID 0000.0001) %MON dynstat_eta_max              =   5.7964595433913E+00
(PID.TID 0000.0001) %MON dynstat_eta_min              =  -1.4196547799107E+01
(PID.TID 0000.0001) %MON dynstat_eta_mean             =  -2.5095549617211E+00
(PID.TID 0000.0001) %MON dynstat_eta_sd               =   4.9518721681791E+00
(PID.TID 0000.0001) %MON dynstat_eta_del2             =   2.0714047360768E-01
(PID.TID 0000.0001) %MON dynstat_uvel_max             =   2.0582467191553E-03
(PID.TID 0000.0001) %MON dynstat_uvel_min             =  -3.4131710820191E-03
(PID.TID 0000.0001) %MON dynstat_uvel_mean            =  -1.1649820971867E-07
(PID.TID 0000.0001) %MON dynstat_uvel_sd              =   1.3113789240117E-04
(PID.TID 0000.0001) %MON dynstat_uvel_del2            =   3.0860505269134E-07
(PID.TID 0000.0001) %MON dynstat_vvel_max             =   4.0798881122130E-03
(PID.TID 0000.0001) %MON dynstat_vvel_min             =  -2.8229226892069E-03
(PID.TID 0000.0001) %MON dynstat_vvel_mean            =   1.4876850234859E-05
(PID.TID 0000.0001) %MON dynstat_vvel_sd              =   1.4683746527705E-04
(PID.TID 0000.0001) %MON dynstat_vvel_del2            =   4.2550581473952E-07
(PID.TID 0000.0001) %MON dynstat_wvel_max             =   1.6917219298282E-04
(PID.TID 0000.0001) %MON dynstat_wvel_min             =  -1.4212325141893E-04
(PID.TID 0000.0001) %MON dynstat_wvel_mean            =   6.4736129674745E-09
(PID.TID 0000.0001) %MON dynstat_wvel_sd              =   3.1745784143732E-05
(PID.TID 0000.0001) %MON dynstat_wvel_del2            =   1.5182286167812E-07
(PID.TID 0000.0001) %MON dynstat_theta_max            =   1.2000000000000E+00
(PID.TID 0000.0001) %MON dynstat_theta_min            =  -1.0000000000000E+00
(PID.TID 0000.0001) %MON dynstat_theta_mean           =   5.6907049385663E-01
(PID.TID 0000.0001) %MON dynstat_theta_sd             =   8.6856657649503E-01
(PID.TID 0000.0001) %MON dynstat_theta_del2           =   1.1417583198345E-06
(PID.TID 0000.0001) %MON dynstat_salt_max             =   3.4700000000000E+01
(PID.TID 0000.0001) %MON dynstat_salt_min             =   3.4000000000000E+01
(PID.TID 0000.0001) %MON dynstat_salt_mean            =   3.4499242335235E+01
(PID.TID 0000.0001) %MON dynstat_salt_sd              =   2.7636014791151E-01
(PID.TID 0000.0001) %MON dynstat_salt_del2            =   3.8412446156826E-07
(PID.TID 0000.0001) %MON advcfl_uvel_max              =   3.4131710820191E-04
(PID.TID 0000.0001) %MON advcfl_vvel_max              =   4.0798881122130E-04
(PID.TID 0000.0001) %MON advcfl_wvel_max              =   8.4586096491409E-04
(PID.TID 0000.0001) %MON advcfl_W_hf_max              =   8.4586096491409E-04
(PID.TID 0000.0001) %MON pe_b_mean                    =  -8.3151953264509E-01
(PID.TID 0000.0001) %MON ke_max                       =   8.9117619342902E-06
(PID.TID 0000.0001) %MON ke_mean                      =   1.9317721459753E-08
(PID.TID 0000.0001) %MON ke_vol                       =   4.2725333267280E+12
(PID.TID 0000.0001) // =======================================================
(PID.TID 0000.0001) // End MONITOR dynamic field statistics
(PID.TID 0000.0001) // =======================================================
(PID.TID 0000.0001) // =======================================================
(PID.TID 0000.0001) // Begin OBCS MONITOR field statistics
(PID.TID 0000.0001) // =======================================================
(PID.TID 0000.0001) %MON obc_N_vVel_max               =   1.4658324197885E-05
(PID.TID 0000.0001) %MON obc_N_vVel_min               =   1.4658324197885E-05
(PID.TID 0000.0001) %MON obc_N_vVel_mean              =   1.4658324197885E-05
(PID.TID 0000.0001) %MON obc_N_vVel_sd                =   1.2244447150657E-12
(PID.TID 0000.0001) %MON obc_N_vVel_Int               =   9.6744939706038E+02
(PID.TID 0000.0001) // =======================================================
(PID.TID 0000.0001) // End OBCS MONITOR field statistics
(PID.TID 0000.0001) // =======================================================
 cg2d: Sum(rhs),rhsMax =   4.51902835338390E+00  2.99880225818098E+02
(PID.TID 0000.0001)      cg2d_init_res =   6.87058626350472E-06
(PID.TID 0000.0001)      cg2d_iters(min,last) =      -1      75
(PID.TID 0000.0001)      cg2d_last_res =   9.31865966774351E-12
(PID.TID 0000.0001) // =======================================================
(PID.TID 0000.0001) // Begin MONITOR dynamic field statistics
(PID.TID 0000.0001) // =======================================================
(PID.TID 0000.0001) %MON time_tsnumber                =                   340
(PID.TID 0000.0001) %MON time_secondsf                =   3.4000000000000E+04
(PID.TID 0000.0001) %MON dynstat_eta_max              =   5.7964262538904E+00
(PID.TID 0000.0001) %MON dynstat_eta_min              =  -1.4196564403983E+01
(PID.TID 0000.0001) %MON dynstat_eta_mean             =  -2.5095689686873E+00
(PID.TID 0000.0001) %MON dynstat_eta_sd               =   4.9518767661891E+00
(PID.TID 0000.0001) %MON dynstat_eta_del2             =   2.0714047719738E-01
(PID.TID 0000.0001) %MON dynstat_uvel_max             =   2.0595160195222E-03
(PID.TID 0000.0001) %MON dynstat_uvel_min             =  -3.4212553499438E-03
(PID.TID 0000.0001) %MON dynstat_uvel_mean            =  -1.1664051465697E-07
(PID.TID 0000.0001) %MON dynstat_uvel_sd              =   1.3156116486172E-04
(PID.TID 0000.0001) %MON dynstat_uvel_del2            =   3.0841666050953E-07
(PID.TID 0000.0001) %MON dynstat_vvel_max             =   4.0879476313629E-03
(PID.TID 0000.0001) %MON dynstat_vvel_min             =  -2.8158038586286E-03
(PID.TID 0000.0001) %MON dynstat_vvel_mean            =   1.4881038372572E-05
(PID.TID 0000.0001) %MON dynstat_vvel_sd              =   1.4695371246205E-04
(PID.TID 0000.0001) %MON dynstat_vvel_del2            =   4.2460559383315E-07
(PID.TID 0000.0001) %MON dynstat_wvel_max             =   1.6862831795032E-04
(PID.TID 0000.0001) %MON dynstat_wvel_min             =  -1.4503486354977E-04
(PID.TID 0000.0001) %MON dynstat_wvel_mean            =   6.4975893828492E-09
(PID.TID 0000.0001) %MON dynstat_wvel_sd              =   3.1672242183238E-05
(PID.TID 0000.0001) %MON dynstat_wvel_del2            =   1.5126430369536E-07
(PID.TID 0000.0001) %MON dynstat_theta_max            =   1.2000000000000E+00
(PID.TID 0000.0001) %MON dynstat_theta_min            =  -1.0000000000000E+00
(PID.TID 0000.0001) %MON dynstat_theta_mean           =   5.6907022666127E-01
(PID.TID 0000.0001) %MON dynstat_theta_sd             =   8.6856643768196E-01
(PID.TID 0000.0001) %MON dynstat_theta_del2           =   1.1396685026181E-06
(PID.TID 0000.0001) %MON dynstat_salt_max             =   3.4700000000000E+01
(PID.TID 0000.0001) %MON dynstat_salt_min             =   3.4000000000000E+01
(PID.TID 0000.0001) %MON dynstat_salt_mean            =   3.4499242228268E+01
(PID.TID 0000.0001) %MON dynstat_salt_sd              =   2.7636009757006E-01
(PID.TID 0000.0001) %MON dynstat_salt_del2            =   3.8361864492510E-07
(PID.TID 0000.0001) %MON advcfl_uvel_max              =   3.4212553499438E-04
(PID.TID 0000.0001) %MON advcfl_vvel_max              =   4.0879476313629E-04
(PID.TID 0000.0001) %MON advcfl_wvel_max              =   8.4314158975158E-04
(PID.TID 0000.0001) %MON advcfl_W_hf_max              =   8.4314158975158E-04
(PID.TID 0000.0001) %MON pe_b_mean                    =  -8.3152357528771E-01
(PID.TID 0000.0001) %MON ke_max                       =   8.9136690558339E-06
(PID.TID 0000.0001) %MON ke_mean                      =   1.9389353436422E-08
(PID.TID 0000.0001) %MON ke_vol                       =   4.2725332435274E+12
(PID.TID 0000.0001) // =======================================================
(PID.TID 0000.0001) // End MONITOR dynamic field statistics
(PID.TID 0000.0001) // =======================================================
(PID.TID 0000.0001) // =======================================================
(PID.TID 0000.0001) // Begin OBCS MONITOR field statistics
(PID.TID 0000.0001) // =======================================================
(PID.TID 0000.0001) %MON obc_N_vVel_max               =   1.4660313505718E-05
(PID.TID 0000.0001) %MON obc_N_vVel_min               =   1.4660313505718E-05
(PID.TID 0000.0001) %MON obc_N_vVel_mean              =   1.4660313505718E-05
(PID.TID 0000.0001) %MON obc_N_vVel_sd                =   4.2324496619099E-12
(PID.TID 0000.0001) %MON obc_N_vVel_Int               =   9.6758069137738E+02
(PID.TID 0000.0001) // =======================================================
(PID.TID 0000.0001) // End OBCS MONITOR field statistics
(PID.TID 0000.0001) // =======================================================
 cg2d: Sum(rhs),rhsMax =   4.51905241617393E+00  2.99880303048664E+02
(PID.TID 0000.0001)      cg2d_init_res =   6.86395769036073E-06
(PID.TID 0000.0001)      cg2d_iters(min,last) =      -1      75
(PID.TID 0000.0001)      cg2d_last_res =   9.30380634580550E-12
(PID.TID 0000.0001) // =======================================================
(PID.TID 0000.0001) // Begin MONITOR dynamic field statistics
(PID.TID 0000.0001) // =======================================================
(PID.TID 0000.0001) %MON time_tsnumber                =                   341
(PID.TID 0000.0001) %MON time_secondsf                =   3.4100000000000E+04
(PID.TID 0000.0001) %MON dynstat_eta_max              =   5.7963929595106E+00
(PID.TID 0000.0001) %MON dynstat_eta_min              =  -1.4196581008332E+01
(PID.TID 0000.0001) %MON dynstat_eta_mean             =  -2.5095829778797E+00
(PID.TID 0000.0001) %MON dynstat_eta_sd               =   4.9518813668006E+00
(PID.TID 0000.0001) %MON dynstat_eta_del2             =   2.0714048082498E-01
(PID.TID 0000.0001) %MON dynstat_uvel_max             =   2.0607099154142E-03
(PID.TID 0000.0001) %MON dynstat_uvel_min             =  -3.4292598044967E-03
(PID.TID 0000.0001) %MON dynstat_uvel_mean            =  -1.1677286099215E-07
(PID.TID 0000.0001) %MON dynstat_uvel_sd              =   1.3198498862546E-04
(PID.TID 0000.0001) %MON dynstat_uvel_del2            =   3.0823337419585E-07
(PID.TID 0000.0001) %MON dynstat_vvel_max             =   4.0959042943607E-03
(PID.TID 0000.0001) %MON dynstat_vvel_min             =  -2.8086350913128E-03
(PID.TID 0000.0001) %MON dynstat_vvel_mean            =   1.4887372631078E-05
(PID.TID 0000.0001) %MON dynstat_vvel_sd              =   1.4707005093453E-04
(PID.TID 0000.0001) %MON dynstat_vvel_del2            =   4.2371270757204E-07
(PID.TID 0000.0001) %MON dynstat_wvel_max             =   1.6808229595344E-04
(PID.TID 0000.0001) %MON dynstat_wvel_min             =  -1.4956282764779E-04
(PID.TID 0000.0001) %MON dynstat_wvel_mean            =   6.5230157403720E-09
(PID.TID 0000.0001) %MON dynstat_wvel_sd              =   3.1598918421215E-05
(PID.TID 0000.0001) %MON dynstat_wvel_del2            =   1.5070956613514E-07
(PID.TID 0000.0001) %MON dynstat_theta_max            =   1.2000000000000E+00
(PID.TID 0000.0001) %MON dynstat_theta_min            =  -1.0000000000000E+00
(PID.TID 0000.0001) %MON dynstat_theta_mean           =   5.6906995920822E-01
(PID.TID 0000.0001) %MON dynstat_theta_sd             =   8.6856629880155E-01
(PID.TID 0000.0001) %MON dynstat_theta_del2           =   1.1375935569485E-06
(PID.TID 0000.0001) %MON dynstat_salt_max             =   3.4700000000000E+01
(PID.TID 0000.0001) %MON dynstat_salt_min             =   3.4000000000000E+01
(PID.TID 0000.0001) %MON dynstat_salt_mean            =   3.4499242121198E+01
(PID.TID 0000.0001) %MON dynstat_salt_sd              =   2.7636004719406E-01
(PID.TID 0000.0001) %MON dynstat_salt_del2            =   3.8311810008567E-07
(PID.TID 0000.0001) %MON advcfl_uvel_max              =   3.4292598044967E-04
(PID.TID 0000.0001) %MON advcfl_vvel_max              =   4.0959042943607E-04
(PID.TID 0000.0001) %MON advcfl_wvel_max              =   8.4041147976718E-04
(PID.TID 0000.0001) %MON advcfl_W_hf_max              =   8.4041147976718E-04
(PID.TID 0000.0001) %MON pe_b_mean                    =  -8.3152761890750E-01
(PID.TID 0000.0001) %MON ke_max                       =   8.9152852329953E-06
(PID.TID 0000.0001) %MON ke_mean                      =   1.9461291025450E-08
(PID.TID 0000.0001) %MON ke_vol                       =   4.2725331603260E+12
(PID.TID 0000.0001) // =======================================================
(PID.TID 0000.0001) // End MONITOR dynamic field statistics
(PID.TID 0000.0001) // =======================================================
(PID.TID 0000.0001) // =======================================================
(PID.TID 0000.0001) // Begin OBCS MONITOR field statistics
(PID.TID 0000.0001) // =======================================================
(PID.TID 0000.0001) %MON obc_N_vVel_max               =   1.4664227644605E-05
(PID.TID 0000.0001) %MON obc_N_vVel_min               =   1.4664227644605E-05
(PID.TID 0000.0001) %MON obc_N_vVel_mean              =   1.4664227644605E-05
(PID.TID 0000.0001) %MON obc_N_vVel_sd                =   4.0386839073862E-12
(PID.TID 0000.0001) %MON obc_N_vVel_Int               =   9.6783902454393E+02
(PID.TID 0000.0001) // =======================================================
(PID.TID 0000.0001) // End OBCS MONITOR field statistics
(PID.TID 0000.0001) // =======================================================
 cg2d: Sum(rhs),rhsMax =   4.51907648714387E+00  2.99880380229250E+02
(PID.TID 0000.0001)      cg2d_init_res =   6.85624728077276E-06
(PID.TID 0000.0001)      cg2d_iters(min,last) =      -1      75
(PID.TID 0000.0001)      cg2d_last_res =   9.27888096309973E-12
(PID.TID 0000.0001) // =======================================================
(PID.TID 0000.0001) // Begin MONITOR dynamic field statistics
(PID.TID 0000.0001) // =======================================================
(PID.TID 0000.0001) %MON time_tsnumber                =                   342
(PID.TID 0000.0001) %MON time_secondsf                =   3.4200000000000E+04
(PID.TID 0000.0001) %MON dynstat_eta_max              =   5.7963596583504E+00
(PID.TID 0000.0001) %MON dynstat_eta_min              =  -1.4196597615822E+01
(PID.TID 0000.0001) %MON dynstat_eta_mean             =  -2.5095969912033E+00
(PID.TID 0000.0001) %MON dynstat_eta_sd               =   4.9518859704387E+00
(PID.TID 0000.0001) %MON dynstat_eta_del2             =   2.0714048449087E-01
(PID.TID 0000.0001) %MON dynstat_uvel_max             =   2.0618284455644E-03
(PID.TID 0000.0001) %MON dynstat_uvel_min             =  -3.4371842231909E-03
(PID.TID 0000.0001) %MON dynstat_uvel_mean            =  -1.1689212086631E-07
(PID.TID 0000.0001) %MON dynstat_uvel_sd              =   1.3240934186739E-04
(PID.TID 0000.0001) %MON dynstat_uvel_del2            =   3.0805519740953E-07
(PID.TID 0000.0001) %MON dynstat_vvel_max             =   4.1037577159209E-03
(PID.TID 0000.0001) %MON dynstat_vvel_min             =  -2.8014173250241E-03
(PID.TID 0000.0001) %MON dynstat_vvel_mean            =   1.4895583239954E-05
(PID.TID 0000.0001) %MON dynstat_vvel_sd              =   1.4718706461500E-04
(PID.TID 0000.0001) %MON dynstat_vvel_del2            =   4.2284255132960E-07
(PID.TID 0000.0001) %MON dynstat_wvel_max             =   1.6753416414231E-04
(PID.TID 0000.0001) %MON dynstat_wvel_min             =  -1.5795506153235E-04
(PID.TID 0000.0001) %MON dynstat_wvel_mean            =   6.5490815074249E-09
(PID.TID 0000.0001) %MON dynstat_wvel_sd              =   3.1527075056395E-05
(PID.TID 0000.0001) %MON dynstat_wvel_del2            =   1.5017821234967E-07
(PID.TID 0000.0001) %MON dynstat_theta_max            =   1.2000000000000E+00
(PID.TID 0000.0001) %MON dynstat_theta_min            =  -1.0000000000000E+00
(PID.TID 0000.0001) %MON dynstat_theta_mean           =   5.6906969149493E-01
(PID.TID 0000.0001) %MON dynstat_theta_sd             =   8.6856615984982E-01
(PID.TID 0000.0001) %MON dynstat_theta_del2           =   1.1355186767938E-06
(PID.TID 0000.0001) %MON dynstat_salt_max             =   3.4700000000000E+01
(PID.TID 0000.0001) %MON dynstat_salt_min             =   3.4000000000000E+01
(PID.TID 0000.0001) %MON dynstat_salt_mean            =   3.4499242014025E+01
(PID.TID 0000.0001) %MON dynstat_salt_sd              =   2.7635999678186E-01
(PID.TID 0000.0001) %MON dynstat_salt_del2            =   3.8261844404680E-07
(PID.TID 0000.0001) %MON advcfl_uvel_max              =   3.4371842231909E-04
(PID.TID 0000.0001) %MON advcfl_vvel_max              =   4.1037577159209E-04
(PID.TID 0000.0001) %MON advcfl_wvel_max              =   8.3767082071156E-04
(PID.TID 0000.0001) %MON advcfl_W_hf_max              =   8.3767082071156E-04
(PID.TID 0000.0001) %MON pe_b_mean                    =  -8.3153166394782E-01
(PID.TID 0000.0001) %MON ke_max                       =   8.9166101783296E-06
(PID.TID 0000.0001) %MON ke_mean                      =   1.9533614094619E-08
(PID.TID 0000.0001) %MON ke_vol                       =   4.2725330771114E+12
(PID.TID 0000.0001) // =======================================================
(PID.TID 0000.0001) // End MONITOR dynamic field statistics
(PID.TID 0000.0001) // =======================================================
(PID.TID 0000.0001) // =======================================================
(PID.TID 0000.0001) // Begin OBCS MONITOR field statistics
(PID.TID 0000.0001) // =======================================================
(PID.TID 0000.0001) %MON obc_N_vVel_max               =   1.4669876758982E-05
(PID.TID 0000.0001) %MON obc_N_vVel_min               =   1.4669876758981E-05
(PID.TID 0000.0001) %MON obc_N_vVel_mean              =   1.4669876758981E-05
(PID.TID 0000.0001) %MON obc_N_vVel_sd                =   3.1751005835233E-12
(PID.TID 0000.0001) %MON obc_N_vVel_Int               =   9.6821186609276E+02
(PID.TID 0000.0001) // =======================================================
(PID.TID 0000.0001) // End OBCS MONITOR field statistics
(PID.TID 0000.0001) // =======================================================
 cg2d: Sum(rhs),rhsMax =   4.51910056951064E+00  2.99880457343165E+02
(PID.TID 0000.0001)      cg2d_init_res =   6.84779970807183E-06
(PID.TID 0000.0001)      cg2d_iters(min,last) =      -1      75
(PID.TID 0000.0001)      cg2d_last_res =   9.25379172494514E-12
(PID.TID 0000.0001) // =======================================================
(PID.TID 0000.0001) // Begin MONITOR dynamic field statistics
(PID.TID 0000.0001) // =======================================================
(PID.TID 0000.0001) %MON time_tsnumber                =                   343
(PID.TID 0000.0001) %MON time_secondsf                =   3.4300000000000E+04
(PID.TID 0000.0001) %MON dynstat_eta_max              =   5.7963263487866E+00
(PID.TID 0000.0001) %MON dynstat_eta_min              =  -1.4196614229421E+01
(PID.TID 0000.0001) %MON dynstat_eta_mean             =  -2.5096110103048E+00
(PID.TID 0000.0001) %MON dynstat_eta_sd               =   4.9518905774050E+00
(PID.TID 0000.0001) %MON dynstat_eta_del2             =   2.0714048819490E-01
(PID.TID 0000.0001) %MON dynstat_uvel_max             =   2.0628716525442E-03
(PID.TID 0000.0001) %MON dynstat_uvel_min             =  -3.4450283885599E-03
(PID.TID 0000.0001) %MON dynstat_uvel_mean            =  -1.1699562428782E-07
(PID.TID 0000.0001) %MON dynstat_uvel_sd              =   1.3283420264301E-04
(PID.TID 0000.0001) %MON dynstat_uvel_del2            =   3.0788213053346E-07
(PID.TID 0000.0001) %MON dynstat_vvel_max             =   4.1115074692701E-03
(PID.TID 0000.0001) %MON dynstat_vvel_min             =  -2.7941515533625E-03
(PID.TID 0000.0001) %MON dynstat_vvel_mean            =   1.4905353687962E-05
(PID.TID 0000.0001) %MON dynstat_vvel_sd              =   1.4730524960559E-04
(PID.TID 0000.0001) %MON dynstat_vvel_del2            =   4.2200804180945E-07
(PID.TID 0000.0001) %MON dynstat_wvel_max             =   1.6698396008903E-04
(PID.TID 0000.0001) %MON dynstat_wvel_min             =  -1.6445233067790E-04
(PID.TID 0000.0001) %MON dynstat_wvel_mean            =   6.5749838864704E-09
(PID.TID 0000.0001) %MON dynstat_wvel_sd              =   3.1457786427068E-05
(PID.TID 0000.0001) %MON dynstat_wvel_del2            =   1.4968666237543E-07
(PID.TID 0000.0001) %MON dynstat_theta_max            =   1.2000000000000E+00
(PID.TID 0000.0001) %MON dynstat_theta_min            =  -1.0000000000000E+00
(PID.TID 0000.0001) %MON dynstat_theta_mean           =   5.6906942351899E-01
(PID.TID 0000.0001) %MON dynstat_theta_sd             =   8.6856602077181E-01
(PID.TID 0000.0001) %MON dynstat_theta_del2           =   1.1334320401813E-06
(PID.TID 0000.0001) %MON dynstat_salt_max             =   3.4700000000000E+01
(PID.TID 0000.0001) %MON dynstat_salt_min             =   3.4000000000000E+01
(PID.TID 0000.0001) %MON dynstat_salt_mean            =   3.4499241906746E+01
(PID.TID 0000.0001) %MON dynstat_salt_sd              =   2.7635994631612E-01
(PID.TID 0000.0001) %MON dynstat_salt_del2            =   3.8211617841077E-07
(PID.TID 0000.0001) %MON advcfl_uvel_max              =   3.4450283885599E-04
(PID.TID 0000.0001) %MON advcfl_vvel_max              =   4.1115074692701E-04
(PID.TID 0000.0001) %MON advcfl_wvel_max              =   8.3491980044515E-04
(PID.TID 0000.0001) %MON advcfl_W_hf_max              =   8.3491980044515E-04
(PID.TID 0000.0001) %MON pe_b_mean                    =  -8.3153571077124E-01
(PID.TID 0000.0001) %MON ke_max                       =   8.9176434629259E-06
(PID.TID 0000.0001) %MON ke_mean                      =   1.9606389111386E-08
(PID.TID 0000.0001) %MON ke_vol                       =   4.2725329938723E+12
(PID.TID 0000.0001) // =======================================================
(PID.TID 0000.0001) // End MONITOR dynamic field statistics
(PID.TID 0000.0001) // =======================================================
(PID.TID 0000.0001) // =======================================================
(PID.TID 0000.0001) // Begin OBCS MONITOR field statistics
(PID.TID 0000.0001) // =======================================================
(PID.TID 0000.0001) %MON obc_N_vVel_max               =   1.4677025699152E-05
(PID.TID 0000.0001) %MON obc_N_vVel_min               =   1.4677025699152E-05
(PID.TID 0000.0001) %MON obc_N_vVel_mean              =   1.4677025699152E-05
(PID.TID 0000.0001) %MON obc_N_vVel_sd                =  -2.0679515313826E-25
(PID.TID 0000.0001) %MON obc_N_vVel_Int               =   9.6868369614401E+02
(PID.TID 0000.0001) // =======================================================
(PID.TID 0000.0001) // End OBCS MONITOR field statistics
(PID.TID 0000.0001) // =======================================================
 cg2d: Sum(rhs),rhsMax =   4.51912466590702E+00  2.99880534374265E+02
(PID.TID 0000.0001)      cg2d_init_res =   6.83891182738875E-06
(PID.TID 0000.0001)      cg2d_iters(min,last) =      -1      75
(PID.TID 0000.0001)      cg2d_last_res =   9.23285417532110E-12
(PID.TID 0000.0001) // =======================================================
(PID.TID 0000.0001) // Begin MONITOR dynamic field statistics
(PID.TID 0000.0001) // =======================================================
(PID.TID 0000.0001) %MON time_tsnumber                =                   344
(PID.TID 0000.0001) %MON time_secondsf                =   3.4400000000000E+04
(PID.TID 0000.0001) %MON dynstat_eta_max              =   5.7962930295076E+00
(PID.TID 0000.0001) %MON dynstat_eta_min              =  -1.4196630851349E+01
(PID.TID 0000.0001) %MON dynstat_eta_mean             =  -2.5096250365113E+00
(PID.TID 0000.0001) %MON dynstat_eta_sd               =   4.9518951878650E+00
(PID.TID 0000.0001) %MON dynstat_eta_del2             =   2.0714049193660E-01
(PID.TID 0000.0001) %MON dynstat_uvel_max             =   2.0638395827032E-03
(PID.TID 0000.0001) %MON dynstat_uvel_min             =  -3.4527920883590E-03
(PID.TID 0000.0001) %MON dynstat_uvel_mean            =  -1.1708125793836E-07
(PID.TID 0000.0001) %MON dynstat_uvel_sd              =   1.3325954892389E-04
(PID.TID 0000.0001) %MON dynstat_uvel_del2            =   3.0771417091144E-07
(PID.TID 0000.0001) %MON dynstat_vvel_max             =   4.1191530991984E-03
(PID.TID 0000.0001) %MON dynstat_vvel_min             =  -2.7868388110868E-03
(PID.TID 0000.0001) %MON dynstat_vvel_mean            =   1.4916331714952E-05
(PID.TID 0000.0001) %MON dynstat_vvel_sd              =   1.4742495185614E-04
(PID.TID 0000.0001) %MON dynstat_vvel_del2            =   4.2121798860170E-07
(PID.TID 0000.0001) %MON dynstat_wvel_max             =   1.6643172131841E-04
(PID.TID 0000.0001) %MON dynstat_wvel_min             =  -1.6856466229952E-04
(PID.TID 0000.0001) %MON dynstat_wvel_mean            =   6.5999525391644E-09
(PID.TID 0000.0001) %MON dynstat_wvel_sd              =   3.1391801142087E-05
(PID.TID 0000.0001) %MON dynstat_wvel_del2            =   1.4924606227219E-07
(PID.TID 0000.0001) %MON dynstat_theta_max            =   1.2000000000000E+00
(PID.TID 0000.0001) %MON dynstat_theta_min            =  -1.0000000000000E+00
(PID.TID 0000.0001) %MON dynstat_theta_mean           =   5.6906915527573E-01
(PID.TID 0000.0001) %MON dynstat_theta_sd             =   8.6856588150353E-01
(PID.TID 0000.0001) %MON dynstat_theta_del2           =   1.1313265980490E-06
(PID.TID 0000.0001) %MON dynstat_salt_max             =   3.4700000000000E+01
(PID.TID 0000.0001) %MON dynstat_salt_min             =   3.4000000000000E+01
(PID.TID 0000.0001) %MON dynstat_salt_mean            =   3.4499241799361E+01
(PID.TID 0000.0001) %MON dynstat_salt_sd              =   2.7635989577600E-01
(PID.TID 0000.0001) %MON dynstat_salt_del2            =   3.8160926996277E-07
(PID.TID 0000.0001) %MON advcfl_uvel_max              =   3.4527920883590E-04
(PID.TID 0000.0001) %MON advcfl_vvel_max              =   4.1191530991984E-04
(PID.TID 0000.0001) %MON advcfl_wvel_max              =   8.4282331149761E-04
(PID.TID 0000.0001) %MON advcfl_W_hf_max              =   8.4282331149761E-04
(PID.TID 0000.0001) %MON pe_b_mean                    =  -8.3153975964361E-01
(PID.TID 0000.0001) %MON ke_max                       =   8.9183845622315E-06
(PID.TID 0000.0001) %MON ke_mean                      =   1.9679660067018E-08
(PID.TID 0000.0001) %MON ke_vol                       =   4.2725329105988E+12
(PID.TID 0000.0001) // =======================================================
(PID.TID 0000.0001) // End MONITOR dynamic field statistics
(PID.TID 0000.0001) // =======================================================
(PID.TID 0000.0001) // =======================================================
(PID.TID 0000.0001) // Begin OBCS MONITOR field statistics
(PID.TID 0000.0001) // =======================================================
(PID.TID 0000.0001) %MON obc_N_vVel_max               =   1.4685402519021E-05
(PID.TID 0000.0001) %MON obc_N_vVel_min               =   1.4685402519021E-05
(PID.TID 0000.0001) %MON obc_N_vVel_mean              =   1.4685402519021E-05
(PID.TID 0000.0001) %MON obc_N_vVel_sd                =   3.8653524825349E-12
(PID.TID 0000.0001) %MON obc_N_vVel_Int               =   9.6923656625539E+02
(PID.TID 0000.0001) // =======================================================
(PID.TID 0000.0001) // End OBCS MONITOR field statistics
(PID.TID 0000.0001) // =======================================================
 cg2d: Sum(rhs),rhsMax =   4.51914877836346E+00  2.99880611307444E+02
(PID.TID 0000.0001)      cg2d_init_res =   6.82983754205934E-06
(PID.TID 0000.0001)      cg2d_iters(min,last) =      -1      75
(PID.TID 0000.0001)      cg2d_last_res =   9.21447899586117E-12
(PID.TID 0000.0001) // =======================================================
(PID.TID 0000.0001) // Begin MONITOR dynamic field statistics
(PID.TID 0000.0001) // =======================================================
(PID.TID 0000.0001) %MON time_tsnumber                =                   345
(PID.TID 0000.0001) %MON time_secondsf                =   3.4500000000000E+04
(PID.TID 0000.0001) %MON dynstat_eta_max              =   5.7962596995165E+00
(PID.TID 0000.0001) %MON dynstat_eta_min              =  -1.4196647483015E+01
(PID.TID 0000.0001) %MON dynstat_eta_mean             =  -2.5096390708239E+00
(PID.TID 0000.0001) %MON dynstat_eta_sd               =   4.9518998018628E+00
(PID.TID 0000.0001) %MON dynstat_eta_del2             =   2.0714049571560E-01
(PID.TID 0000.0001) %MON dynstat_uvel_max             =   2.0647322859706E-03
(PID.TID 0000.0001) %MON dynstat_uvel_min             =  -3.4604751156940E-03
(PID.TID 0000.0001) %MON dynstat_uvel_mean            =  -1.1714746956710E-07
(PID.TID 0000.0001) %MON dynstat_uvel_sd              =   1.3368535864484E-04
(PID.TID 0000.0001) %MON dynstat_uvel_del2            =   3.0755131294972E-07
(PID.TID 0000.0001) %MON dynstat_vvel_max             =   4.1266941355671E-03
(PID.TID 0000.0001) %MON dynstat_vvel_min             =  -2.7794801589591E-03
(PID.TID 0000.0001) %MON dynstat_vvel_mean            =   1.4928141036416E-05
(PID.TID 0000.0001) %MON dynstat_vvel_sd              =   1.4754632581606E-04
(PID.TID 0000.0001) %MON dynstat_vvel_del2            =   4.2047603428092E-07
(PID.TID 0000.0001) %MON dynstat_wvel_max             =   1.6587748547806E-04
(PID.TID 0000.0001) %MON dynstat_wvel_min             =  -1.7022060446532E-04
(PID.TID 0000.0001) %MON dynstat_wvel_mean            =   6.6232731843456E-09
(PID.TID 0000.0001) %MON dynstat_wvel_sd              =   3.1329449446167E-05
(PID.TID 0000.0001) %MON dynstat_wvel_del2            =   1.4886088358435E-07
(PID.TID 0000.0001) %MON dynstat_theta_max            =   1.2000000000000E+00
(PID.TID 0000.0001) %MON dynstat_theta_min            =  -1.0000000000000E+00
(PID.TID 0000.0001) %MON dynstat_theta_mean           =   5.6906888676108E-01
(PID.TID 0000.0001) %MON dynstat_theta_sd             =   8.6856574198749E-01
(PID.TID 0000.0001) %MON dynstat_theta_del2           =   1.1292001621703E-06
(PID.TID 0000.0001) %MON dynstat_salt_max             =   3.4700000000000E+01
(PID.TID 0000.0001) %MON dynstat_salt_min             =   3.4000000000000E+01
(PID.TID 0000.0001) %MON dynstat_salt_mean            =   3.4499241691867E+01
(PID.TID 0000.0001) %MON dynstat_salt_sd              =   2.7635984514331E-01
(PID.TID 0000.0001) %MON dynstat_salt_del2            =   3.8109716292797E-07
(PID.TID 0000.0001) %MON advcfl_uvel_max              =   3.4604751156940E-04
(PID.TID 0000.0001) %MON advcfl_vvel_max              =   4.1266941355671E-04
(PID.TID 0000.0001) %MON advcfl_wvel_max              =   8.5110302232661E-04
(PID.TID 0000.0001) %MON advcfl_W_hf_max              =   8.5110302232661E-04
(PID.TID 0000.0001) %MON pe_b_mean                    =  -8.3154381073789E-01
(PID.TID 0000.0001) %MON ke_max                       =   8.9188329035425E-06
(PID.TID 0000.0001) %MON ke_mean                      =   1.9753442464727E-08
(PID.TID 0000.0001) %MON ke_vol                       =   4.2725328272831E+12
(PID.TID 0000.0001) // =======================================================
(PID.TID 0000.0001) // End MONITOR dynamic field statistics
(PID.TID 0000.0001) // =======================================================
(PID.TID 0000.0001) // =======================================================
(PID.TID 0000.0001) // Begin OBCS MONITOR field statistics
(PID.TID 0000.0001) // =======================================================
(PID.TID 0000.0001) %MON obc_N_vVel_max               =   1.4694707951778E-05
(PID.TID 0000.0001) %MON obc_N_vVel_min               =   1.4694707951778E-05
(PID.TID 0000.0001) %MON obc_N_vVel_mean              =   1.4694707951778E-05
(PID.TID 0000.0001) %MON obc_N_vVel_sd                =  -1.3028094647710E-23
(PID.TID 0000.0001) %MON obc_N_vVel_Int               =   9.6985072481735E+02
(PID.TID 0000.0001) // =======================================================
(PID.TID 0000.0001) // End OBCS MONITOR field statistics
(PID.TID 0000.0001) // =======================================================
 cg2d: Sum(rhs),rhsMax =   4.51917290828274E+00  2.99880688129138E+02
(PID.TID 0000.0001)      cg2d_init_res =   6.82072675024415E-06
(PID.TID 0000.0001)      cg2d_iters(min,last) =      -1      75
(PID.TID 0000.0001)      cg2d_last_res =   9.19804146355033E-12
(PID.TID 0000.0001) // =======================================================
(PID.TID 0000.0001) // Begin MONITOR dynamic field statistics
(PID.TID 0000.0001) // =======================================================
(PID.TID 0000.0001) %MON time_tsnumber                =                   346
(PID.TID 0000.0001) %MON time_secondsf                =   3.4600000000000E+04
(PID.TID 0000.0001) %MON dynstat_eta_max              =   5.7962263581267E+00
(PID.TID 0000.0001) %MON dynstat_eta_min              =  -1.4196664125015E+01
(PID.TID 0000.0001) %MON dynstat_eta_mean             =  -2.5096531139081E+00
(PID.TID 0000.0001) %MON dynstat_eta_sd               =   4.9519044193246E+00
(PID.TID 0000.0001) %MON dynstat_eta_del2             =   2.0714049953141E-01
(PID.TID 0000.0001) %MON dynstat_uvel_max             =   2.0655498158637E-03
(PID.TID 0000.0001) %MON dynstat_uvel_min             =  -3.4680772687359E-03
(PID.TID 0000.0001) %MON dynstat_uvel_mean            =  -1.1719326874693E-07
(PID.TID 0000.0001) %MON dynstat_uvel_sd              =   1.3411160974107E-04
(PID.TID 0000.0001) %MON dynstat_uvel_del2            =   3.0739354783248E-07
(PID.TID 0000.0001) %MON dynstat_vvel_max             =   4.1341301121074E-03
(PID.TID 0000.0001) %MON dynstat_vvel_min             =  -2.7720766677959E-03
(PID.TID 0000.0001) %MON dynstat_vvel_mean            =   1.4940393487318E-05
(PID.TID 0000.0001) %MON dynstat_vvel_sd              =   1.4766932001576E-04
(PID.TID 0000.0001) %MON dynstat_vvel_del2            =   4.1978030134318E-07
(PID.TID 0000.0001) %MON dynstat_wvel_max             =   1.6532129027925E-04
(PID.TID 0000.0001) %MON dynstat_wvel_min             =  -1.6938567021820E-04
(PID.TID 0000.0001) %MON dynstat_wvel_mean            =   6.6443040039270E-09
(PID.TID 0000.0001) %MON dynstat_wvel_sd              =   3.1270608337957E-05
(PID.TID 0000.0001) %MON dynstat_wvel_del2            =   1.4852844659151E-07
(PID.TID 0000.0001) %MON dynstat_theta_max            =   1.2000000000000E+00
(PID.TID 0000.0001) %MON dynstat_theta_min            =  -1.0000000000000E+00
(PID.TID 0000.0001) %MON dynstat_theta_mean           =   5.6906861797265E-01
(PID.TID 0000.0001) %MON dynstat_theta_sd             =   8.6856560226328E-01
(PID.TID 0000.0001) %MON dynstat_theta_del2           =   1.1270565371083E-06
(PID.TID 0000.0001) %MON dynstat_salt_max             =   3.4700000000000E+01
(PID.TID 0000.0001) %MON dynstat_salt_min             =   3.4000000000000E+01
(PID.TID 0000.0001) %MON dynstat_salt_mean            =   3.4499241584264E+01
(PID.TID 0000.0001) %MON dynstat_salt_sd              =   2.7635979443042E-01
(PID.TID 0000.0001) %MON dynstat_salt_del2            =   3.8058103739923E-07
(PID.TID 0000.0001) %MON advcfl_uvel_max              =   3.4680772687359E-04
(PID.TID 0000.0001) %MON advcfl_vvel_max              =   4.1341301121074E-04
(PID.TID 0000.0001) %MON advcfl_wvel_max              =   8.4692835109101E-04
(PID.TID 0000.0001) %MON advcfl_W_hf_max              =   8.4692835109101E-04
(PID.TID 0000.0001) %MON pe_b_mean                    =  -8.3154786413549E-01
(PID.TID 0000.0001) %MON ke_max                       =   8.9189879134853E-06
(PID.TID 0000.0001) %MON ke_mean                      =   1.9827721259498E-08
(PID.TID 0000.0001) %MON ke_vol                       =   4.2725327439193E+12
(PID.TID 0000.0001) // =======================================================
(PID.TID 0000.0001) // End MONITOR dynamic field statistics
(PID.TID 0000.0001) // =======================================================
(PID.TID 0000.0001) // =======================================================
(PID.TID 0000.0001) // Begin OBCS MONITOR field statistics
(PID.TID 0000.0001) // =======================================================
(PID.TID 0000.0001) %MON obc_N_vVel_max               =   1.4704625626040E-05
(PID.TID 0000.0001) %MON obc_N_vVel_min               =   1.4704625626040E-05
(PID.TID 0000.0001) %MON obc_N_vVel_mean              =   1.4704625626040E-05
(PID.TID 0000.0001) %MON obc_N_vVel_sd                =  -1.3674329501267E-23
(PID.TID 0000.0001) %MON obc_N_vVel_Int               =   9.7050529131866E+02
(PID.TID 0000.0001) // =======================================================
(PID.TID 0000.0001) // End OBCS MONITOR field statistics
(PID.TID 0000.0001) // =======================================================
 cg2d: Sum(rhs),rhsMax =   4.51919705636058E+00  2.99880764827746E+02
(PID.TID 0000.0001)      cg2d_init_res =   6.81164506773854E-06
(PID.TID 0000.0001)      cg2d_iters(min,last) =      -1      75
(PID.TID 0000.0001)      cg2d_last_res =   9.18318774734612E-12
(PID.TID 0000.0001) // =======================================================
(PID.TID 0000.0001) // Begin MONITOR dynamic field statistics
(PID.TID 0000.0001) // =======================================================
(PID.TID 0000.0001) %MON time_tsnumber                =                   347
(PID.TID 0000.0001) %MON time_secondsf                =   3.4700000000000E+04
(PID.TID 0000.0001) %MON dynstat_eta_max              =   5.7961930049647E+00
(PID.TID 0000.0001) %MON dynstat_eta_min              =  -1.4196680777150E+01
(PID.TID 0000.0001) %MON dynstat_eta_mean             =  -2.5096671660532E+00
(PID.TID 0000.0001) %MON dynstat_eta_sd               =   4.9519090400572E+00
(PID.TID 0000.0001) %MON dynstat_eta_del2             =   2.0714050338425E-01
(PID.TID 0000.0001) %MON dynstat_uvel_max             =   2.0662922294558E-03
(PID.TID 0000.0001) %MON dynstat_uvel_min             =  -3.4755983510171E-03
(PID.TID 0000.0001) %MON dynstat_uvel_mean            =  -1.1721829699103E-07
(PID.TID 0000.0001) %MON dynstat_uvel_sd              =   1.3453828018841E-04
(PID.TID 0000.0001) %MON dynstat_uvel_del2            =   3.0724086490272E-07
(PID.TID 0000.0001) %MON dynstat_vvel_max             =   4.1414605731935E-03
(PID.TID 0000.0001) %MON dynstat_vvel_min             =  -2.7646294025434E-03
(PID.TID 0000.0001) %MON dynstat_vvel_mean            =   1.4952701215414E-05
(PID.TID 0000.0001) %MON dynstat_vvel_sd              =   1.4779368849914E-04
(PID.TID 0000.0001) %MON dynstat_vvel_del2            =   4.1912375902823E-07
(PID.TID 0000.0001) %MON dynstat_wvel_max             =   1.6476317325695E-04
(PID.TID 0000.0001) %MON dynstat_wvel_min             =  -1.6606343294669E-04
(PID.TID 0000.0001) %MON dynstat_wvel_mean            =   6.6624941072890E-09
(PID.TID 0000.0001) %MON dynstat_wvel_sd              =   3.1214726173874E-05
(PID.TID 0000.0001) %MON dynstat_wvel_del2            =   1.4823940990735E-07
(PID.TID 0000.0001) %MON dynstat_theta_max            =   1.2000000000000E+00
(PID.TID 0000.0001) %MON dynstat_theta_min            =  -1.0000000000000E+00
(PID.TID 0000.0001) %MON dynstat_theta_mean           =   5.6906834890582E-01
(PID.TID 0000.0001) %MON dynstat_theta_sd             =   8.6856546234384E-01
(PID.TID 0000.0001) %MON dynstat_theta_del2           =   1.1249048676452E-06
(PID.TID 0000.0001) %MON dynstat_salt_max             =   3.4700000000000E+01
(PID.TID 0000.0001) %MON dynstat_salt_min             =   3.4000000000000E+01
(PID.TID 0000.0001) %MON dynstat_salt_mean            =   3.4499241476549E+01
(PID.TID 0000.0001) %MON dynstat_salt_sd              =   2.7635974364108E-01
(PID.TID 0000.0001) %MON dynstat_salt_del2            =   3.8006369280742E-07
(PID.TID 0000.0001) %MON advcfl_uvel_max              =   3.4755983510171E-04
(PID.TID 0000.0001) %MON advcfl_vvel_max              =   4.1414605731935E-04
(PID.TID 0000.0001) %MON advcfl_wvel_max              =   8.3031716473347E-04
(PID.TID 0000.0001) %MON advcfl_W_hf_max              =   8.3031716473347E-04
(PID.TID 0000.0001) %MON pe_b_mean                    =  -8.3155191981464E-01
(PID.TID 0000.0001) %MON ke_max                       =   8.9188490658097E-06
(PID.TID 0000.0001) %MON ke_mean                      =   1.9902452604334E-08
(PID.TID 0000.0001) %MON ke_vol                       =   4.2725326605034E+12
(PID.TID 0000.0001) // =======================================================
(PID.TID 0000.0001) // End MONITOR dynamic field statistics
(PID.TID 0000.0001) // =======================================================
(PID.TID 0000.0001) // =======================================================
(PID.TID 0000.0001) // Begin OBCS MONITOR field statistics
(PID.TID 0000.0001) // =======================================================
(PID.TID 0000.0001) %MON obc_N_vVel_max               =   1.4714832078568E-05
(PID.TID 0000.0001) %MON obc_N_vVel_min               =   1.4714832078568E-05
(PID.TID 0000.0001) %MON obc_N_vVel_mean              =   1.4714832078568E-05
(PID.TID 0000.0001) %MON obc_N_vVel_sd                =   2.1146974220003E-12
(PID.TID 0000.0001) %MON obc_N_vVel_Int               =   9.7117891718549E+02
(PID.TID 0000.0001) // =======================================================
(PID.TID 0000.0001) // End OBCS MONITOR field statistics
(PID.TID 0000.0001) // =======================================================
 cg2d: Sum(rhs),rhsMax =   4.51922122261850E+00  2.99880841394031E+02
(PID.TID 0000.0001)      cg2d_init_res =   6.80252571832525E-06
(PID.TID 0000.0001)      cg2d_iters(min,last) =      -1      75
(PID.TID 0000.0001)      cg2d_last_res =   9.17061482690640E-12
(PID.TID 0000.0001) // =======================================================
(PID.TID 0000.0001) // Begin MONITOR dynamic field statistics
(PID.TID 0000.0001) // =======================================================
(PID.TID 0000.0001) %MON time_tsnumber                =                   348
(PID.TID 0000.0001) %MON time_secondsf                =   3.4800000000000E+04
(PID.TID 0000.0001) %MON dynstat_eta_max              =   5.7961596399650E+00
(PID.TID 0000.0001) %MON dynstat_eta_min              =  -1.4196697438447E+01
(PID.TID 0000.0001) %MON dynstat_eta_mean             =  -2.5096812271937E+00
(PID.TID 0000.0001) %MON dynstat_eta_sd               =   4.9519136637631E+00
(PID.TID 0000.0001) %MON dynstat_eta_del2             =   2.0714050727434E-01
(PID.TID 0000.0001) %MON dynstat_uvel_max             =   2.0669595873271E-03
(PID.TID 0000.0001) %MON dynstat_uvel_min             =  -3.4830381713191E-03
(PID.TID 0000.0001) %MON dynstat_uvel_mean            =  -1.1722286352613E-07
(PID.TID 0000.0001) %MON dynstat_uvel_sd              =   1.3496534807831E-04
(PID.TID 0000.0001) %MON dynstat_uvel_del2            =   3.0709325161492E-07
(PID.TID 0000.0001) %MON dynstat_vvel_max             =   4.1486850897341E-03
(PID.TID 0000.0001) %MON dynstat_vvel_min             =  -2.7571394071826E-03
(PID.TID 0000.0001) %MON dynstat_vvel_mean            =   1.4964688499671E-05
(PID.TID 0000.0001) %MON dynstat_vvel_sd              =   1.4791902795370E-04
(PID.TID 0000.0001) %MON dynstat_vvel_del2            =   4.1849526648555E-07
(PID.TID 0000.0001) %MON dynstat_wvel_max             =   1.6420317180169E-04
(PID.TID 0000.0001) %MON dynstat_wvel_min             =  -1.6029601759805E-04
(PID.TID 0000.0001) %MON dynstat_wvel_mean            =   6.6773964500179E-09
(PID.TID 0000.0001) %MON dynstat_wvel_sd              =   3.1160903471343E-05
(PID.TID 0000.0001) %MON dynstat_wvel_del2            =   1.4797914635307E-07
(PID.TID 0000.0001) %MON dynstat_theta_max            =   1.2000000000000E+00
(PID.TID 0000.0001) %MON dynstat_theta_min            =  -1.0000000000000E+00
(PID.TID 0000.0001) %MON dynstat_theta_mean           =   5.6906807955596E-01
(PID.TID 0000.0001) %MON dynstat_theta_sd             =   8.6856532224377E-01
(PID.TID 0000.0001) %MON dynstat_theta_del2           =   1.1227594700777E-06
(PID.TID 0000.0001) %MON dynstat_salt_max             =   3.4700000000000E+01
(PID.TID 0000.0001) %MON dynstat_salt_min             =   3.4000000000000E+01
(PID.TID 0000.0001) %MON dynstat_salt_mean            =   3.4499241368722E+01
(PID.TID 0000.0001) %MON dynstat_salt_sd              =   2.7635969277976E-01
(PID.TID 0000.0001) %MON dynstat_salt_del2            =   3.7954946613320E-07
(PID.TID 0000.0001) %MON advcfl_uvel_max              =   3.4830381713191E-04
(PID.TID 0000.0001) %MON advcfl_vvel_max              =   4.1486850897341E-04
(PID.TID 0000.0001) %MON advcfl_wvel_max              =   8.2101585900844E-04
(PID.TID 0000.0001) %MON advcfl_W_hf_max              =   8.2101585900844E-04
(PID.TID 0000.0001) %MON pe_b_mean                    =  -8.3155597766207E-01
(PID.TID 0000.0001) %MON ke_max                       =   8.9184159263149E-06
(PID.TID 0000.0001) %MON ke_mean                      =   1.9977569403928E-08
(PID.TID 0000.0001) %MON ke_vol                       =   4.2725325770336E+12
(PID.TID 0000.0001) // =======================================================
(PID.TID 0000.0001) // End MONITOR dynamic field statistics
(PID.TID 0000.0001) // =======================================================
(PID.TID 0000.0001) // =======================================================
(PID.TID 0000.0001) // Begin OBCS MONITOR field statistics
(PID.TID 0000.0001) // =======================================================
(PID.TID 0000.0001) %MON obc_N_vVel_max               =   1.4725006872556E-05
(PID.TID 0000.0001) %MON obc_N_vVel_min               =   1.4725006872556E-05
(PID.TID 0000.0001) %MON obc_N_vVel_mean              =   1.4725006872556E-05
(PID.TID 0000.0001) %MON obc_N_vVel_sd                =   3.8820351344302E-12
(PID.TID 0000.0001) %MON obc_N_vVel_Int               =   9.7185045358870E+02
(PID.TID 0000.0001) // =======================================================
(PID.TID 0000.0001) // End OBCS MONITOR field statistics
(PID.TID 0000.0001) // =======================================================
 cg2d: Sum(rhs),rhsMax =   4.51924540642633E+00  2.99880917821429E+02
(PID.TID 0000.0001)      cg2d_init_res =   6.79323658810715E-06
(PID.TID 0000.0001)      cg2d_iters(min,last) =      -1      75
(PID.TID 0000.0001)      cg2d_last_res =   9.16553368757766E-12
(PID.TID 0000.0001) // =======================================================
(PID.TID 0000.0001) // Begin MONITOR dynamic field statistics
(PID.TID 0000.0001) // =======================================================
(PID.TID 0000.0001) %MON time_tsnumber                =                   349
(PID.TID 0000.0001) %MON time_secondsf                =   3.4900000000000E+04
(PID.TID 0000.0001) %MON dynstat_eta_max              =   5.7961262633467E+00
(PID.TID 0000.0001) %MON dynstat_eta_min              =  -1.4196714107216E+01
(PID.TID 0000.0001) %MON dynstat_eta_mean             =  -2.5096952969248E+00
(PID.TID 0000.0001) %MON dynstat_eta_sd               =   4.9519182900409E+00
(PID.TID 0000.0001) %MON dynstat_eta_del2             =   2.0714051120108E-01
(PID.TID 0000.0001) %MON dynstat_uvel_max             =   2.0675519535722E-03
(PID.TID 0000.0001) %MON dynstat_uvel_min             =  -3.4903965436661E-03
(PID.TID 0000.0001) %MON dynstat_uvel_mean            =  -1.1720794189609E-07
(PID.TID 0000.0001) %MON dynstat_uvel_sd              =   1.3539279166470E-04
(PID.TID 0000.0001) %MON dynstat_uvel_del2            =   3.0695069368053E-07
(PID.TID 0000.0001) %MON dynstat_vvel_max             =   4.1558032711304E-03
(PID.TID 0000.0001) %MON dynstat_vvel_min             =  -2.7496076909674E-03
(PID.TID 0000.0001) %MON dynstat_vvel_mean            =   1.4976002755251E-05
(PID.TID 0000.0001) %MON dynstat_vvel_sd              =   1.4804483425946E-04
(PID.TID 0000.0001) %MON dynstat_vvel_del2            =   4.1788113264082E-07
(PID.TID 0000.0001) %MON dynstat_wvel_max             =   1.6364132292961E-04
(PID.TID 0000.0001) %MON dynstat_wvel_min             =  -1.5216397393801E-04
(PID.TID 0000.0001) %MON dynstat_wvel_mean            =   6.6886769682766E-09
(PID.TID 0000.0001) %MON dynstat_wvel_sd              =   3.1108018069838E-05
(PID.TID 0000.0001) %MON dynstat_wvel_del2            =   1.4772979605259E-07
(PID.TID 0000.0001) %MON dynstat_theta_max            =   1.2000000000000E+00
(PID.TID 0000.0001) %MON dynstat_theta_min            =  -1.0000000000000E+00
(PID.TID 0000.0001) %MON dynstat_theta_mean           =   5.6906780991852E-01
(PID.TID 0000.0001) %MON dynstat_theta_sd             =   8.6856518197589E-01
(PID.TID 0000.0001) %MON dynstat_theta_del2           =   1.1206365744472E-06
(PID.TID 0000.0001) %MON dynstat_salt_max             =   3.4700000000000E+01
(PID.TID 0000.0001) %MON dynstat_salt_min             =   3.4000000000000E+01
(PID.TID 0000.0001) %MON dynstat_salt_mean            =   3.4499241260781E+01
(PID.TID 0000.0001) %MON dynstat_salt_sd              =   2.7635964185057E-01
(PID.TID 0000.0001) %MON dynstat_salt_del2            =   3.7904325478101E-07
(PID.TID 0000.0001) %MON advcfl_uvel_max              =   3.4903965436661E-04
(PID.TID 0000.0001) %MON advcfl_vvel_max              =   4.1558032711304E-04
(PID.TID 0000.0001) %MON advcfl_wvel_max              =   8.1820661464806E-04
(PID.TID 0000.0001) %MON advcfl_W_hf_max              =   8.1820661464806E-04
(PID.TID 0000.0001) %MON pe_b_mean                    =  -8.3156003747785E-01
(PID.TID 0000.0001) %MON ke_max                       =   8.9176881944910E-06
(PID.TID 0000.0001) %MON ke_mean                      =   2.0052989753940E-08
(PID.TID 0000.0001) %MON ke_vol                       =   4.2725324935105E+12
(PID.TID 0000.0001) // =======================================================
(PID.TID 0000.0001) // End MONITOR dynamic field statistics
(PID.TID 0000.0001) // =======================================================
(PID.TID 0000.0001) // =======================================================
(PID.TID 0000.0001) // Begin OBCS MONITOR field statistics
(PID.TID 0000.0001) // =======================================================
(PID.TID 0000.0001) %MON obc_N_vVel_max               =   1.4734842134519E-05
(PID.TID 0000.0001) %MON obc_N_vVel_min               =   1.4734842134519E-05
(PID.TID 0000.0001) %MON obc_N_vVel_mean              =   1.4734842134519E-05
(PID.TID 0000.0001) %MON obc_N_vVel_sd                =  -3.3604212384967E-24
(PID.TID 0000.0001) %MON obc_N_vVel_Int               =   9.7249958087822E+02
(PID.TID 0000.0001) // =======================================================
(PID.TID 0000.0001) // End OBCS MONITOR field statistics
(PID.TID 0000.0001) // =======================================================
 cg2d: Sum(rhs),rhsMax =   4.51926960652889E+00  2.99880994106295E+02
(PID.TID 0000.0001)      cg2d_init_res =   6.78360634488232E-06
(PID.TID 0000.0001)      cg2d_iters(min,last) =      -1      75
(PID.TID 0000.0001)      cg2d_last_res =   9.16754885908182E-12
(PID.TID 0000.0001) // =======================================================
(PID.TID 0000.0001) // Begin MONITOR dynamic field statistics
(PID.TID 0000.0001) // =======================================================
(PID.TID 0000.0001) %MON time_tsnumber                =                   350
(PID.TID 0000.0001) %MON time_secondsf                =   3.5000000000000E+04
(PID.TID 0000.0001) %MON dynstat_eta_max              =   5.7960928755769E+00
(PID.TID 0000.0001) %MON dynstat_eta_min              =  -1.4196730781118E+01
(PID.TID 0000.0001) %MON dynstat_eta_mean             =  -2.5097093745190E+00
(PID.TID 0000.0001) %MON dynstat_eta_sd               =   4.9519229184155E+00
(PID.TID 0000.0001) %MON dynstat_eta_del2             =   2.0714051516482E-01
(PID.TID 0000.0001) %MON dynstat_uvel_max             =   2.0680693957659E-03
(PID.TID 0000.0001) %MON dynstat_uvel_min             =  -3.4976732869160E-03
(PID.TID 0000.0001) %MON dynstat_uvel_mean            =  -1.1717510990832E-07
(PID.TID 0000.0001) %MON dynstat_uvel_sd              =   1.3582058940692E-04
(PID.TID 0000.0001) %MON dynstat_uvel_del2            =   3.0681317527490E-07
(PID.TID 0000.0001) %MON dynstat_vvel_max             =   4.1628147775050E-03
(PID.TID 0000.0001) %MON dynstat_vvel_min             =  -2.7420352155714E-03
(PID.TID 0000.0001) %MON dynstat_vvel_mean            =   1.4986324493825E-05
(PID.TID 0000.0001) %MON dynstat_vvel_sd              =   1.4817057122161E-04
(PID.TID 0000.0001) %MON dynstat_vvel_del2            =   4.1726697817816E-07
(PID.TID 0000.0001) %MON dynstat_wvel_max             =   1.6307766321890E-04
(PID.TID 0000.0001) %MON dynstat_wvel_min             =  -1.4200851880381E-04
(PID.TID 0000.0001) %MON dynstat_wvel_mean            =   6.6961259488850E-09
(PID.TID 0000.0001) %MON dynstat_wvel_sd              =   3.1054877258317E-05
(PID.TID 0000.0001) %MON dynstat_wvel_del2            =   1.4747269587869E-07
(PID.TID 0000.0001) %MON dynstat_theta_max            =   1.2000000000000E+00
(PID.TID 0000.0001) %MON dynstat_theta_min            =  -1.0000000000000E+00
(PID.TID 0000.0001) %MON dynstat_theta_mean           =   5.6906753998826E-01
(PID.TID 0000.0001) %MON dynstat_theta_sd             =   8.6856504152713E-01
(PID.TID 0000.0001) %MON dynstat_theta_del2           =   1.1185524339737E-06
(PID.TID 0000.0001) %MON dynstat_salt_max             =   3.4700000000000E+01
(PID.TID 0000.0001) %MON dynstat_salt_min             =   3.4000000000000E+01
(PID.TID 0000.0001) %MON dynstat_salt_mean            =   3.4499241152723E+01
(PID.TID 0000.0001) %MON dynstat_salt_sd              =   2.7635959084893E-01
(PID.TID 0000.0001) %MON dynstat_salt_del2            =   3.7854990149007E-07
(PID.TID 0000.0001) %MON advcfl_uvel_max              =   3.4976732869160E-04
(PID.TID 0000.0001) %MON advcfl_vvel_max              =   4.1628147775050E-04
(PID.TID 0000.0001) %MON advcfl_wvel_max              =   8.1538831609450E-04
(PID.TID 0000.0001) %MON advcfl_W_hf_max              =   8.1538831609450E-04
(PID.TID 0000.0001) %MON pe_b_mean                    =  -8.3156409898363E-01
(PID.TID 0000.0001) %MON ke_max                       =   8.9166657387871E-06
(PID.TID 0000.0001) %MON ke_mean                      =   2.0128627215998E-08
(PID.TID 0000.0001) %MON ke_vol                       =   4.2725324099363E+12
(PID.TID 0000.0001) // =======================================================
(PID.TID 0000.0001) // End MONITOR dynamic field statistics
(PID.TID 0000.0001) // =======================================================
(PID.TID 0000.0001) // =======================================================
(PID.TID 0000.0001) // Begin OBCS MONITOR field statistics
(PID.TID 0000.0001) // =======================================================
(PID.TID 0000.0001) %MON obc_N_vVel_max               =   1.4744051273250E-05
(PID.TID 0000.0001) %MON obc_N_vVel_min               =   1.4744051273249E-05
(PID.TID 0000.0001) %MON obc_N_vVel_mean              =   1.4744051273249E-05
(PID.TID 0000.0001) %MON obc_N_vVel_sd                =   3.5770728396875E-12
(PID.TID 0000.0001) %MON obc_N_vVel_Int               =   9.7310738403446E+02
(PID.TID 0000.0001) // =======================================================
(PID.TID 0000.0001) // End OBCS MONITOR field statistics
(PID.TID 0000.0001) // =======================================================
 cg2d: Sum(rhs),rhsMax =   4.51929382111126E+00  2.99881070248005E+02
(PID.TID 0000.0001)      cg2d_init_res =   6.77345360668075E-06
(PID.TID 0000.0001)      cg2d_iters(min,last) =      -1      75
(PID.TID 0000.0001)      cg2d_last_res =   9.16474946031673E-12
(PID.TID 0000.0001) // =======================================================
(PID.TID 0000.0001) // Begin MONITOR dynamic field statistics
(PID.TID 0000.0001) // =======================================================
(PID.TID 0000.0001) %MON time_tsnumber                =                   351
(PID.TID 0000.0001) %MON time_secondsf                =   3.5100000000000E+04
(PID.TID 0000.0001) %MON dynstat_eta_max              =   5.7960594773615E+00
(PID.TID 0000.0001) %MON dynstat_eta_min              =  -1.4196747457290E+01
(PID.TID 0000.0001) %MON dynstat_eta_mean             =  -2.5097234589630E+00
(PID.TID 0000.0001) %MON dynstat_eta_sd               =   4.9519275483462E+00
(PID.TID 0000.0001) %MON dynstat_eta_del2             =   2.0714051916568E-01
(PID.TID 0000.0001) %MON dynstat_uvel_max             =   2.0685119851128E-03
(PID.TID 0000.0001) %MON dynstat_uvel_min             =  -3.5048682248605E-03
(PID.TID 0000.0001) %MON dynstat_uvel_mean            =  -1.1712647981614E-07
(PID.TID 0000.0001) %MON dynstat_uvel_sd              =   1.3624872002260E-04
(PID.TID 0000.0001) %MON dynstat_uvel_del2            =   3.0668067930331E-07
(PID.TID 0000.0001) %MON dynstat_vvel_max             =   4.1697193284529E-03
(PID.TID 0000.0001) %MON dynstat_vvel_min             =  -2.7344228839343E-03
(PID.TID 0000.0001) %MON dynstat_vvel_mean            =   1.4995375939213E-05
(PID.TID 0000.0001) %MON dynstat_vvel_sd              =   1.4829574184033E-04
(PID.TID 0000.0001) %MON dynstat_vvel_del2            =   4.1663963907953E-07
(PID.TID 0000.0001) %MON dynstat_wvel_max             =   1.6251222904478E-04
(PID.TID 0000.0001) %MON dynstat_wvel_min             =  -1.4030232455248E-04
(PID.TID 0000.0001) %MON dynstat_wvel_mean            =   6.6996557673734E-09
(PID.TID 0000.0001) %MON dynstat_wvel_sd              =   3.1000375601051E-05
(PID.TID 0000.0001) %MON dynstat_wvel_del2            =   1.4719083950792E-07
(PID.TID 0000.0001) %MON dynstat_theta_max            =   1.2000000000000E+00
(PID.TID 0000.0001) %MON dynstat_theta_min            =  -1.0000000000000E+00
(PID.TID 0000.0001) %MON dynstat_theta_mean           =   5.6906726975975E-01
(PID.TID 0000.0001) %MON dynstat_theta_sd             =   8.6856490088522E-01
(PID.TID 0000.0001) %MON dynstat_theta_del2           =   1.1165196540381E-06
(PID.TID 0000.0001) %MON dynstat_salt_max             =   3.4700000000000E+01
(PID.TID 0000.0001) %MON dynstat_salt_min             =   3.4000000000000E+01
(PID.TID 0000.0001) %MON dynstat_salt_mean            =   3.4499241044546E+01
(PID.TID 0000.0001) %MON dynstat_salt_sd              =   2.7635953977092E-01
(PID.TID 0000.0001) %MON dynstat_salt_del2            =   3.7807320388448E-07
(PID.TID 0000.0001) %MON advcfl_uvel_max              =   3.5048682248605E-04
(PID.TID 0000.0001) %MON advcfl_vvel_max              =   4.1697193284529E-04
(PID.TID 0000.0001) %MON advcfl_wvel_max              =   8.1256114522389E-04
(PID.TID 0000.0001) %MON advcfl_W_hf_max              =   8.1256114522389E-04
(PID.TID 0000.0001) %MON pe_b_mean                    =  -8.3156816183348E-01
(PID.TID 0000.0001) %MON ke_max                       =   8.9153486265449E-06
(PID.TID 0000.0001) %MON ke_mean                      =   2.0204401504166E-08
(PID.TID 0000.0001) %MON ke_vol                       =   4.2725323263154E+12
(PID.TID 0000.0001) // =======================================================
(PID.TID 0000.0001) // End MONITOR dynamic field statistics
(PID.TID 0000.0001) // =======================================================
(PID.TID 0000.0001) // =======================================================
(PID.TID 0000.0001) // Begin OBCS MONITOR field statistics
(PID.TID 0000.0001) // =======================================================
(PID.TID 0000.0001) %MON obc_N_vVel_max               =   1.4752377400433E-05
(PID.TID 0000.0001) %MON obc_N_vVel_min               =   1.4752377400432E-05
(PID.TID 0000.0001) %MON obc_N_vVel_mean              =   1.4752377400433E-05
(PID.TID 0000.0001) %MON obc_N_vVel_sd                =  -8.1167097606766E-24
(PID.TID 0000.0001) %MON obc_N_vVel_Int               =   9.7365690842855E+02
(PID.TID 0000.0001) // =======================================================
(PID.TID 0000.0001) // End OBCS MONITOR field statistics
(PID.TID 0000.0001) // =======================================================
 cg2d: Sum(rhs),rhsMax =   4.51931804789836E+00  2.99881146249091E+02
(PID.TID 0000.0001)      cg2d_init_res =   6.76267270383653E-06
(PID.TID 0000.0001)      cg2d_iters(min,last) =      -1      75
(PID.TID 0000.0001)      cg2d_last_res =   9.15202196480112E-12
(PID.TID 0000.0001) // =======================================================
(PID.TID 0000.0001) // Begin MONITOR dynamic field statistics
(PID.TID 0000.0001) // =======================================================
(PID.TID 0000.0001) %MON time_tsnumber                =                   352
(PID.TID 0000.0001) %MON time_secondsf                =   3.5200000000000E+04
(PID.TID 0000.0001) %MON dynstat_eta_max              =   5.7960260696052E+00
(PID.TID 0000.0001) %MON dynstat_eta_min              =  -1.4196764132438E+01
(PID.TID 0000.0001) %MON dynstat_eta_mean             =  -2.5097375490147E+00
(PID.TID 0000.0001) %MON dynstat_eta_sd               =   4.9519321792638E+00
(PID.TID 0000.0001) %MON dynstat_eta_del2             =   2.0714052320445E-01
(PID.TID 0000.0001) %MON dynstat_uvel_max             =   2.0688797964973E-03
(PID.TID 0000.0001) %MON dynstat_uvel_min             =  -3.5119811865655E-03
(PID.TID 0000.0001) %MON dynstat_uvel_mean            =  -1.1706457925609E-07
(PID.TID 0000.0001) %MON dynstat_uvel_sd              =   1.3667716248940E-04
(PID.TID 0000.0001) %MON dynstat_uvel_del2            =   3.0655318764183E-07
(PID.TID 0000.0001) %MON dynstat_vvel_max             =   4.1765167113379E-03
(PID.TID 0000.0001) %MON dynstat_vvel_min             =  -2.7267715313837E-03
(PID.TID 0000.0001) %MON dynstat_vvel_mean            =   1.5002928136620E-05
(PID.TID 0000.0001) %MON dynstat_vvel_sd              =   1.4841995222401E-04
(PID.TID 0000.0001) %MON dynstat_vvel_del2            =   4.1598885998865E-07
(PID.TID 0000.0001) %MON dynstat_wvel_max             =   1.6194505646250E-04
(PID.TID 0000.0001) %MON dynstat_wvel_min             =  -1.4499780595457E-04
(PID.TID 0000.0001) %MON dynstat_wvel_mean            =   6.6993017527050E-09
(PID.TID 0000.0001) %MON dynstat_wvel_sd              =   3.0943637438489E-05
(PID.TID 0000.0001) %MON dynstat_wvel_del2            =   1.4687104823538E-07
(PID.TID 0000.0001) %MON dynstat_theta_max            =   1.2000000000000E+00
(PID.TID 0000.0001) %MON dynstat_theta_min            =  -1.0000000000000E+00
(PID.TID 0000.0001) %MON dynstat_theta_mean           =   5.6906699922932E-01
(PID.TID 0000.0001) %MON dynstat_theta_sd             =   8.6856476010198E-01
(PID.TID 0000.0001) %MON dynstat_theta_del2           =   1.1145474827296E-06
(PID.TID 0000.0001) %MON dynstat_salt_max             =   3.4700000000000E+01
(PID.TID 0000.0001) %MON dynstat_salt_min             =   3.4000000000000E+01
(PID.TID 0000.0001) %MON dynstat_salt_mean            =   3.4499240936249E+01
(PID.TID 0000.0001) %MON dynstat_salt_sd              =   2.7635948863283E-01
(PID.TID 0000.0001) %MON dynstat_salt_del2            =   3.7761595105934E-07
(PID.TID 0000.0001) %MON advcfl_uvel_max              =   3.5119811865655E-04
(PID.TID 0000.0001) %MON advcfl_vvel_max              =   4.1765167113379E-04
(PID.TID 0000.0001) %MON advcfl_wvel_max              =   8.0972528231251E-04
(PID.TID 0000.0001) %MON advcfl_W_hf_max              =   8.0972528231251E-04
(PID.TID 0000.0001) %MON pe_b_mean                    =  -8.3157222563385E-01
(PID.TID 0000.0001) %MON ke_max                       =   8.9137371483344E-06
(PID.TID 0000.0001) %MON ke_mean                      =   2.0280248108279E-08
(PID.TID 0000.0001) %MON ke_vol                       =   4.2725322426538E+12
(PID.TID 0000.0001) // =======================================================
(PID.TID 0000.0001) // End MONITOR dynamic field statistics
(PID.TID 0000.0001) // =======================================================
(PID.TID 0000.0001) // =======================================================
(PID.TID 0000.0001) // Begin OBCS MONITOR field statistics
(PID.TID 0000.0001) // =======================================================
(PID.TID 0000.0001) %MON obc_N_vVel_max               =   1.4759599944970E-05
(PID.TID 0000.0001) %MON obc_N_vVel_min               =   1.4759599944970E-05
(PID.TID 0000.0001) %MON obc_N_vVel_mean              =   1.4759599944970E-05
(PID.TID 0000.0001) %MON obc_N_vVel_sd                =   4.1802141619997E-12
(PID.TID 0000.0001) %MON obc_N_vVel_Int               =   9.7413359636801E+02
(PID.TID 0000.0001) // =======================================================
(PID.TID 0000.0001) // End OBCS MONITOR field statistics
(PID.TID 0000.0001) // =======================================================
 cg2d: Sum(rhs),rhsMax =   4.51934228418591E+00  2.99881222115115E+02
(PID.TID 0000.0001)      cg2d_init_res =   6.75120672393318E-06
(PID.TID 0000.0001)      cg2d_iters(min,last) =      -1      75
(PID.TID 0000.0001)      cg2d_last_res =   9.13650728877304E-12
(PID.TID 0000.0001) // =======================================================
(PID.TID 0000.0001) // Begin MONITOR dynamic field statistics
(PID.TID 0000.0001) // =======================================================
(PID.TID 0000.0001) %MON time_tsnumber                =                   353
(PID.TID 0000.0001) %MON time_secondsf                =   3.5300000000000E+04
(PID.TID 0000.0001) %MON dynstat_eta_max              =   5.7959926533713E+00
(PID.TID 0000.0001) %MON dynstat_eta_min              =  -1.4196780802932E+01
(PID.TID 0000.0001) %MON dynstat_eta_mean             =  -2.5097516432189E+00
(PID.TID 0000.0001) %MON dynstat_eta_sd               =   4.9519368105642E+00
(PID.TID 0000.0001) %MON dynstat_eta_del2             =   2.0714052728100E-01
(PID.TID 0000.0001) %MON dynstat_uvel_max             =   2.0691729085152E-03
(PID.TID 0000.0001) %MON dynstat_uvel_min             =  -3.5190120059442E-03
(PID.TID 0000.0001) %MON dynstat_uvel_mean            =  -1.1699230039323E-07
(PID.TID 0000.0001) %MON dynstat_uvel_sd              =   1.3710589605549E-04
(PID.TID 0000.0001) %MON dynstat_uvel_del2            =   3.0643068138890E-07
(PID.TID 0000.0001) %MON dynstat_vvel_max             =   4.1832067869203E-03
(PID.TID 0000.0001) %MON dynstat_vvel_min             =  -2.7190819196017E-03
(PID.TID 0000.0001) %MON dynstat_vvel_mean            =   1.5008806361174E-05
(PID.TID 0000.0001) %MON dynstat_vvel_sd              =   1.4854296043240E-04
(PID.TID 0000.0001) %MON dynstat_vvel_del2            =   4.1530856287532E-07
(PID.TID 0000.0001) %MON dynstat_wvel_max             =   1.6137618095788E-04
(PID.TID 0000.0001) %MON dynstat_wvel_min             =  -1.4880435051188E-04
(PID.TID 0000.0001) %MON dynstat_wvel_mean            =   6.6952182606131E-09
(PID.TID 0000.0001) %MON dynstat_wvel_sd              =   3.0884126220965E-05
(PID.TID 0000.0001) %MON dynstat_wvel_del2            =   1.4650558412675E-07
(PID.TID 0000.0001) %MON dynstat_theta_max            =   1.2000000000000E+00
(PID.TID 0000.0001) %MON dynstat_theta_min            =  -1.0000000000000E+00
(PID.TID 0000.0001) %MON dynstat_theta_mean           =   5.6906672839139E-01
(PID.TID 0000.0001) %MON dynstat_theta_sd             =   8.6856461921561E-01
(PID.TID 0000.0001) %MON dynstat_theta_del2           =   1.1126410559883E-06
(PID.TID 0000.0001) %MON dynstat_salt_max             =   3.4700000000000E+01
(PID.TID 0000.0001) %MON dynstat_salt_min             =   3.4000000000000E+01
(PID.TID 0000.0001) %MON dynstat_salt_mean            =   3.4499240827831E+01
(PID.TID 0000.0001) %MON dynstat_salt_sd              =   2.7635943744652E-01
(PID.TID 0000.0001) %MON dynstat_salt_del2            =   3.7717956882265E-07
(PID.TID 0000.0001) %MON advcfl_uvel_max              =   3.5190120059442E-04
(PID.TID 0000.0001) %MON advcfl_vvel_max              =   4.1832067869203E-04
(PID.TID 0000.0001) %MON advcfl_wvel_max              =   8.0688090478940E-04
(PID.TID 0000.0001) %MON advcfl_W_hf_max              =   8.0688090478940E-04
(PID.TID 0000.0001) %MON pe_b_mean                    =  -8.3157628994521E-01
(PID.TID 0000.0001) %MON ke_max                       =   8.9118318357977E-06
(PID.TID 0000.0001) %MON ke_mean                      =   2.0356125704624E-08
(PID.TID 0000.0001) %MON ke_vol                       =   4.2725321589589E+12
(PID.TID 0000.0001) // =======================================================
(PID.TID 0000.0001) // End MONITOR dynamic field statistics
(PID.TID 0000.0001) // =======================================================
(PID.TID 0000.0001) // =======================================================
(PID.TID 0000.0001) // Begin OBCS MONITOR field statistics
(PID.TID 0000.0001) // =======================================================
(PID.TID 0000.0001) %MON obc_N_vVel_max               =   1.4765540205976E-05
(PID.TID 0000.0001) %MON obc_N_vVel_min               =   1.4765540205976E-05
(PID.TID 0000.0001) %MON obc_N_vVel_mean              =   1.4765540205976E-05
(PID.TID 0000.0001) %MON obc_N_vVel_sd                =  -1.5768130426792E-23
(PID.TID 0000.0001) %MON obc_N_vVel_Int               =   9.7452565359444E+02
(PID.TID 0000.0001) // =======================================================
(PID.TID 0000.0001) // End OBCS MONITOR field statistics
(PID.TID 0000.0001) // =======================================================
 cg2d: Sum(rhs),rhsMax =   4.51936652695952E+00  2.99881297854493E+02
(PID.TID 0000.0001)      cg2d_init_res =   6.73913832107904E-06
(PID.TID 0000.0001)      cg2d_iters(min,last) =      -1      75
(PID.TID 0000.0001)      cg2d_last_res =   9.13293005471537E-12
(PID.TID 0000.0001) // =======================================================
(PID.TID 0000.0001) // Begin MONITOR dynamic field statistics
(PID.TID 0000.0001) // =======================================================
(PID.TID 0000.0001) %MON time_tsnumber                =                   354
(PID.TID 0000.0001) %MON time_secondsf                =   3.5400000000000E+04
(PID.TID 0000.0001) %MON dynstat_eta_max              =   5.7959592298089E+00
(PID.TID 0000.0001) %MON dynstat_eta_min              =  -1.4196797464940E+01
(PID.TID 0000.0001) %MON dynstat_eta_mean             =  -2.5097657399718E+00
(PID.TID 0000.0001) %MON dynstat_eta_sd               =   4.9519414416372E+00
(PID.TID 0000.0001) %MON dynstat_eta_del2             =   2.0714053139545E-01
(PID.TID 0000.0001) %MON dynstat_uvel_max             =   2.0693914035288E-03
(PID.TID 0000.0001) %MON dynstat_uvel_min             =  -3.5259605216930E-03
(PID.TID 0000.0001) %MON dynstat_uvel_mean            =  -1.1691279790910E-07
(PID.TID 0000.0001) %MON dynstat_uvel_sd              =   1.3753490024023E-04
(PID.TID 0000.0001) %MON dynstat_uvel_del2            =   3.0631314038976E-07
(PID.TID 0000.0001) %MON dynstat_vvel_max             =   4.1897894924778E-03
(PID.TID 0000.0001) %MON dynstat_vvel_min             =  -2.7113547321518E-03
(PID.TID 0000.0001) %MON dynstat_vvel_mean            =   1.5012893751425E-05
(PID.TID 0000.0001) %MON dynstat_vvel_sd              =   1.4866470417198E-04
(PID.TID 0000.0001) %MON dynstat_vvel_del2            =   4.1459754629063E-07
(PID.TID 0000.0001) %MON dynstat_wvel_max             =   1.6080563740905E-04
(PID.TID 0000.0001) %MON dynstat_wvel_min             =  -1.5309951071451E-04
(PID.TID 0000.0001) %MON dynstat_wvel_mean            =   6.6876686887874E-09
(PID.TID 0000.0001) %MON dynstat_wvel_sd              =   3.0821707539068E-05
(PID.TID 0000.0001) %MON dynstat_wvel_del2            =   1.4609303201610E-07
(PID.TID 0000.0001) %MON dynstat_theta_max            =   1.2000000000000E+00
(PID.TID 0000.0001) %MON dynstat_theta_min            =  -1.0000000000000E+00
(PID.TID 0000.0001) %MON dynstat_theta_mean           =   5.6906645724016E-01
(PID.TID 0000.0001) %MON dynstat_theta_sd             =   8.6856447820775E-01
(PID.TID 0000.0001) %MON dynstat_theta_del2           =   1.1107993748520E-06
(PID.TID 0000.0001) %MON dynstat_salt_max             =   3.4700000000000E+01
(PID.TID 0000.0001) %MON dynstat_salt_min             =   3.4000000000000E+01
(PID.TID 0000.0001) %MON dynstat_salt_mean            =   3.4499240719288E+01
(PID.TID 0000.0001) %MON dynstat_salt_sd              =   2.7635938620619E-01
(PID.TID 0000.0001) %MON dynstat_salt_del2            =   3.7676376439730E-07
(PID.TID 0000.0001) %MON advcfl_uvel_max              =   3.5259605216930E-04
(PID.TID 0000.0001) %MON advcfl_vvel_max              =   4.1897894924778E-04
(PID.TID 0000.0001) %MON advcfl_wvel_max              =   8.0402818704523E-04
(PID.TID 0000.0001) %MON advcfl_W_hf_max              =   8.0402818704523E-04
(PID.TID 0000.0001) %MON pe_b_mean                    =  -8.3158035430293E-01
(PID.TID 0000.0001) %MON ke_max                       =   8.9096334708100E-06
(PID.TID 0000.0001) %MON ke_mean                      =   2.0432020427758E-08
(PID.TID 0000.0001) %MON ke_vol                       =   4.2725320752393E+12
(PID.TID 0000.0001) // =======================================================
(PID.TID 0000.0001) // End MONITOR dynamic field statistics
(PID.TID 0000.0001) // =======================================================
(PID.TID 0000.0001) // =======================================================
(PID.TID 0000.0001) // Begin OBCS MONITOR field statistics
(PID.TID 0000.0001) // =======================================================
(PID.TID 0000.0001) %MON obc_N_vVel_max               =   1.4770065582777E-05
(PID.TID 0000.0001) %MON obc_N_vVel_min               =   1.4770065582777E-05
(PID.TID 0000.0001) %MON obc_N_vVel_mean              =   1.4770065582777E-05
(PID.TID 0000.0001) %MON obc_N_vVel_sd                =  -1.2588654947291E-23
(PID.TID 0000.0001) %MON obc_N_vVel_Int               =   9.7482432846331E+02
(PID.TID 0000.0001) // =======================================================
(PID.TID 0000.0001) // End OBCS MONITOR field statistics
(PID.TID 0000.0001) // =======================================================
 cg2d: Sum(rhs),rhsMax =   4.51939077301262E+00  2.99881373478334E+02
(PID.TID 0000.0001)      cg2d_init_res =   6.72666753357824E-06
(PID.TID 0000.0001)      cg2d_iters(min,last) =      -1      75
(PID.TID 0000.0001)      cg2d_last_res =   9.15298531398320E-12
(PID.TID 0000.0001) // =======================================================
(PID.TID 0000.0001) // Begin MONITOR dynamic field statistics
(PID.TID 0000.0001) // =======================================================
(PID.TID 0000.0001) %MON time_tsnumber                =                   355
(PID.TID 0000.0001) %MON time_secondsf                =   3.5500000000000E+04
(PID.TID 0000.0001) %MON dynstat_eta_max              =   5.7959258001395E+00
(PID.TID 0000.0001) %MON dynstat_eta_min              =  -1.4196814114562E+01
(PID.TID 0000.0001) %MON dynstat_eta_mean             =  -2.5097798375858E+00
(PID.TID 0000.0001) %MON dynstat_eta_sd               =   4.9519460718933E+00
(PID.TID 0000.0001) %MON dynstat_eta_del2             =   2.0714053554823E-01
(PID.TID 0000.0001) %MON dynstat_uvel_max             =   2.0695353679509E-03
(PID.TID 0000.0001) %MON dynstat_uvel_min             =  -3.5328265771338E-03
(PID.TID 0000.0001) %MON dynstat_uvel_mean            =  -1.1682934238747E-07
(PID.TID 0000.0001) %MON dynstat_uvel_sd              =   1.3796415485199E-04
(PID.TID 0000.0001) %MON dynstat_uvel_del2            =   3.0620054415102E-07
(PID.TID 0000.0001) %MON dynstat_vvel_max             =   4.1962648433511E-03
(PID.TID 0000.0001) %MON dynstat_vvel_min             =  -2.7035905729775E-03
(PID.TID 0000.0001) %MON dynstat_vvel_mean            =   1.5015133001967E-05
(PID.TID 0000.0001) %MON dynstat_vvel_sd              =   1.4878530430119E-04
(PID.TID 0000.0001) %MON dynstat_vvel_del2            =   4.1385952813712E-07
(PID.TID 0000.0001) %MON dynstat_wvel_max             =   1.6023346028959E-04
(PID.TID 0000.0001) %MON dynstat_wvel_min             =  -1.5929901968863E-04
(PID.TID 0000.0001) %MON dynstat_wvel_mean            =   6.6770130895768E-09
(PID.TID 0000.0001) %MON dynstat_wvel_sd              =   3.0756658140970E-05
(PID.TID 0000.0001) %MON dynstat_wvel_del2            =   1.4563835014364E-07
(PID.TID 0000.0001) %MON dynstat_theta_max            =   1.2000000000000E+00
(PID.TID 0000.0001) %MON dynstat_theta_min            =  -1.0000000000000E+00
(PID.TID 0000.0001) %MON dynstat_theta_mean           =   5.6906618577083E-01
(PID.TID 0000.0001) %MON dynstat_theta_sd             =   8.6856433708133E-01
(PID.TID 0000.0001) %MON dynstat_theta_del2           =   1.1090160599348E-06
(PID.TID 0000.0001) %MON dynstat_salt_max             =   3.4700000000000E+01
(PID.TID 0000.0001) %MON dynstat_salt_min             =   3.4000000000000E+01
(PID.TID 0000.0001) %MON dynstat_salt_mean            =   3.4499240610620E+01
(PID.TID 0000.0001) %MON dynstat_salt_sd              =   2.7635933491241E-01
(PID.TID 0000.0001) %MON dynstat_salt_del2            =   3.7636656345713E-07
(PID.TID 0000.0001) %MON advcfl_uvel_max              =   3.5328265771338E-04
(PID.TID 0000.0001) %MON advcfl_vvel_max              =   4.1962648433511E-04
(PID.TID 0000.0001) %MON advcfl_wvel_max              =   8.0116730144793E-04
(PID.TID 0000.0001) %MON advcfl_W_hf_max              =   8.0116730144793E-04
(PID.TID 0000.0001) %MON pe_b_mean                    =  -8.3158441823484E-01
(PID.TID 0000.0001) %MON ke_max                       =   8.9071430854641E-06
(PID.TID 0000.0001) %MON ke_mean                      =   2.0507946535023E-08
(PID.TID 0000.0001) %MON ke_vol                       =   4.2725319915046E+12
(PID.TID 0000.0001) // =======================================================
(PID.TID 0000.0001) // End MONITOR dynamic field statistics
(PID.TID 0000.0001) // =======================================================
(PID.TID 0000.0001) // =======================================================
(PID.TID 0000.0001) // Begin OBCS MONITOR field statistics
(PID.TID 0000.0001) // =======================================================
(PID.TID 0000.0001) %MON obc_N_vVel_max               =   1.4773092018535E-05
(PID.TID 0000.0001) %MON obc_N_vVel_min               =   1.4773092018534E-05
(PID.TID 0000.0001) %MON obc_N_vVel_mean              =   1.4773092018535E-05
(PID.TID 0000.0001) %MON obc_N_vVel_sd                =  -1.9878184095415E-23
(PID.TID 0000.0001) %MON obc_N_vVel_Int               =   9.7502407322328E+02
(PID.TID 0000.0001) // =======================================================
(PID.TID 0000.0001) // End OBCS MONITOR field statistics
(PID.TID 0000.0001) // =======================================================
 cg2d: Sum(rhs),rhsMax =   4.51941501902836E+00  2.99881449000146E+02
(PID.TID 0000.0001)      cg2d_init_res =   6.71407257670041E-06
(PID.TID 0000.0001)      cg2d_iters(min,last) =      -1      75
(PID.TID 0000.0001)      cg2d_last_res =   9.19821079191498E-12
(PID.TID 0000.0001) // =======================================================
(PID.TID 0000.0001) // Begin MONITOR dynamic field statistics
(PID.TID 0000.0001) // =======================================================
(PID.TID 0000.0001) %MON time_tsnumber                =                   356
(PID.TID 0000.0001) %MON time_secondsf                =   3.5600000000000E+04
(PID.TID 0000.0001) %MON dynstat_eta_max              =   5.7958923656072E+00
(PID.TID 0000.0001) %MON dynstat_eta_min              =  -1.4196830747973E+01
(PID.TID 0000.0001) %MON dynstat_eta_mean             =  -2.5097939343319E+00
(PID.TID 0000.0001) %MON dynstat_eta_sd               =   4.9519507007765E+00
(PID.TID 0000.0001) %MON dynstat_eta_del2             =   2.0714053973930E-01
(PID.TID 0000.0001) %MON dynstat_uvel_max             =   2.0696048925358E-03
(PID.TID 0000.0001) %MON dynstat_uvel_min             =  -3.5396100200665E-03
(PID.TID 0000.0001) %MON dynstat_uvel_mean            =  -1.1674521905093E-07
(PID.TID 0000.0001) %MON dynstat_uvel_sd              =   1.3839363997965E-04
(PID.TID 0000.0001) %MON dynstat_uvel_del2            =   3.0609287193019E-07
(PID.TID 0000.0001) %MON dynstat_vvel_max             =   4.2026329319844E-03
(PID.TID 0000.0001) %MON dynstat_vvel_min             =  -2.6957899675395E-03
(PID.TID 0000.0001) %MON dynstat_vvel_mean            =   1.5015526144757E-05
(PID.TID 0000.0001) %MON dynstat_vvel_sd              =   1.4890504324695E-04
(PID.TID 0000.0001) %MON dynstat_vvel_del2            =   4.1310253962398E-07
(PID.TID 0000.0001) %MON dynstat_wvel_max             =   1.5965968333825E-04
(PID.TID 0000.0001) %MON dynstat_wvel_min             =  -1.6322862275812E-04
(PID.TID 0000.0001) %MON dynstat_wvel_mean            =   6.6636967501923E-09
(PID.TID 0000.0001) %MON dynstat_wvel_sd              =   3.0689620750642E-05
(PID.TID 0000.0001) %MON dynstat_wvel_del2            =   1.4515210243588E-07
(PID.TID 0000.0001) %MON dynstat_theta_max            =   1.2000000000000E+00
(PID.TID 0000.0001) %MON dynstat_theta_min            =  -1.0000000000000E+00
(PID.TID 0000.0001) %MON dynstat_theta_mean           =   5.6906591397820E-01
(PID.TID 0000.0001) %MON dynstat_theta_sd             =   8.6856419579023E-01
(PID.TID 0000.0001) %MON dynstat_theta_del2           =   1.1072811174689E-06
(PID.TID 0000.0001) %MON dynstat_salt_max             =   3.4700000000000E+01
(PID.TID 0000.0001) %MON dynstat_salt_min             =   3.4000000000000E+01
(PID.TID 0000.0001) %MON dynstat_salt_mean            =   3.4499240501823E+01
(PID.TID 0000.0001) %MON dynstat_salt_sd              =   2.7635928355030E-01
(PID.TID 0000.0001) %MON dynstat_salt_del2            =   3.7598488572847E-07
(PID.TID 0000.0001) %MON advcfl_uvel_max              =   3.5396100200665E-04
(PID.TID 0000.0001) %MON advcfl_vvel_max              =   4.2026329319844E-04
(PID.TID 0000.0001) %MON advcfl_wvel_max              =   8.1614311379059E-04
(PID.TID 0000.0001) %MON advcfl_W_hf_max              =   8.1614311379059E-04
(PID.TID 0000.0001) %MON pe_b_mean                    =  -8.3158848127238E-01
(PID.TID 0000.0001) %MON ke_max                       =   8.9043619570177E-06
(PID.TID 0000.0001) %MON ke_mean                      =   2.0583943301097E-08
(PID.TID 0000.0001) %MON ke_vol                       =   4.2725319077647E+12
(PID.TID 0000.0001) // =======================================================
(PID.TID 0000.0001) // End MONITOR dynamic field statistics
(PID.TID 0000.0001) // =======================================================
(PID.TID 0000.0001) // =======================================================
(PID.TID 0000.0001) // Begin OBCS MONITOR field statistics
(PID.TID 0000.0001) // =======================================================
(PID.TID 0000.0001) %MON obc_N_vVel_max               =   1.4774584770968E-05
(PID.TID 0000.0001) %MON obc_N_vVel_min               =   1.4774584770968E-05
(PID.TID 0000.0001) %MON obc_N_vVel_mean              =   1.4774584770968E-05
(PID.TID 0000.0001) %MON obc_N_vVel_sd                =   3.2355841246403E-12
(PID.TID 0000.0001) %MON obc_N_vVel_Int               =   9.7512259488388E+02
(PID.TID 0000.0001) // =======================================================
(PID.TID 0000.0001) // End OBCS MONITOR field statistics
(PID.TID 0000.0001) // =======================================================
 cg2d: Sum(rhs),rhsMax =   4.51943926169654E+00  2.99881524435466E+02
(PID.TID 0000.0001)      cg2d_init_res =   6.70171220413854E-06
(PID.TID 0000.0001)      cg2d_iters(min,last) =      -1      75
(PID.TID 0000.0001)      cg2d_last_res =   9.26440376464157E-12
(PID.TID 0000.0001) // =======================================================
(PID.TID 0000.0001) // Begin MONITOR dynamic field statistics
(PID.TID 0000.0001) // =======================================================
(PID.TID 0000.0001) %MON time_tsnumber                =                   357
(PID.TID 0000.0001) %MON time_secondsf                =   3.5700000000000E+04
(PID.TID 0000.0001) %MON dynstat_eta_max              =   5.7958589281125E+00
(PID.TID 0000.0001) %MON dynstat_eta_min              =  -1.4196847361513E+01
(PID.TID 0000.0001) %MON dynstat_eta_mean             =  -2.5098080285020E+00
(PID.TID 0000.0001) %MON dynstat_eta_sd               =   4.9519553277784E+00
(PID.TID 0000.0001) %MON dynstat_eta_del2             =   2.0714054396899E-01
(PID.TID 0000.0001) %MON dynstat_uvel_max             =   2.0696000721099E-03
(PID.TID 0000.0001) %MON dynstat_uvel_min             =  -3.5463107028162E-03
(PID.TID 0000.0001) %MON dynstat_uvel_mean            =  -1.1666363220031E-07
(PID.TID 0000.0001) %MON dynstat_uvel_sd              =   1.3882333603269E-04
(PID.TID 0000.0001) %MON dynstat_uvel_del2            =   3.0599010366825E-07
(PID.TID 0000.0001) %MON dynstat_vvel_max             =   4.2088939247282E-03
(PID.TID 0000.0001) %MON dynstat_vvel_min             =  -2.6879533656929E-03
(PID.TID 0000.0001) %MON dynstat_vvel_mean            =   1.5014132568306E-05
(PID.TID 0000.0001) %MON dynstat_vvel_sd              =   1.4902432403280E-04
(PID.TID 0000.0001) %MON dynstat_vvel_del2            =   4.1233778087908E-07
(PID.TID 0000.0001) %MON dynstat_wvel_max             =   1.5908434007270E-04
(PID.TID 0000.0001) %MON dynstat_wvel_min             =  -1.6482074890689E-04
(PID.TID 0000.0001) %MON dynstat_wvel_mean            =   6.6482316772928E-09
(PID.TID 0000.0001) %MON dynstat_wvel_sd              =   3.0621513572415E-05
(PID.TID 0000.0001) %MON dynstat_wvel_del2            =   1.4464899499682E-07
(PID.TID 0000.0001) %MON dynstat_theta_max            =   1.2000000000000E+00
(PID.TID 0000.0001) %MON dynstat_theta_min            =  -1.0000000000000E+00
(PID.TID 0000.0001) %MON dynstat_theta_mean           =   5.6906564185759E-01
(PID.TID 0000.0001) %MON dynstat_theta_sd             =   8.6856405421794E-01
(PID.TID 0000.0001) %MON dynstat_theta_del2           =   1.1055797434527E-06
(PID.TID 0000.0001) %MON dynstat_salt_max             =   3.4700000000000E+01
(PID.TID 0000.0001) %MON dynstat_salt_min             =   3.4000000000000E+01
(PID.TID 0000.0001) %MON dynstat_salt_mean            =   3.4499240392897E+01
(PID.TID 0000.0001) %MON dynstat_salt_sd              =   2.7635923208288E-01
(PID.TID 0000.0001) %MON dynstat_salt_del2            =   3.7561431131597E-07
(PID.TID 0000.0001) %MON advcfl_uvel_max              =   3.5463107028162E-04
(PID.TID 0000.0001) %MON advcfl_vvel_max              =   4.2088939247282E-04
(PID.TID 0000.0001) %MON advcfl_wvel_max              =   8.2410374453443E-04
(PID.TID 0000.0001) %MON advcfl_W_hf_max              =   8.2410374453443E-04
(PID.TID 0000.0001) %MON pe_b_mean                    =  -8.3159254296734E-01
(PID.TID 0000.0001) %MON ke_max                       =   8.9012915948588E-06
(PID.TID 0000.0001) %MON ke_mean                      =   2.0660068985221E-08
(PID.TID 0000.0001) %MON ke_vol                       =   4.2725318240301E+12
(PID.TID 0000.0001) // =======================================================
(PID.TID 0000.0001) // End MONITOR dynamic field statistics
(PID.TID 0000.0001) // =======================================================
(PID.TID 0000.0001) // =======================================================
(PID.TID 0000.0001) // Begin OBCS MONITOR field statistics
(PID.TID 0000.0001) // =======================================================
(PID.TID 0000.0001) %MON obc_N_vVel_max               =   1.4774557955864E-05
(PID.TID 0000.0001) %MON obc_N_vVel_min               =   1.4774557955864E-05
(PID.TID 0000.0001) %MON obc_N_vVel_mean              =   1.4774557955864E-05
(PID.TID 0000.0001) %MON obc_N_vVel_sd                =   8.6581316121100E-13
(PID.TID 0000.0001) %MON obc_N_vVel_Int               =   9.7512082508700E+02
(PID.TID 0000.0001) // =======================================================
(PID.TID 0000.0001) // End OBCS MONITOR field statistics
(PID.TID 0000.0001) // =======================================================
 cg2d: Sum(rhs),rhsMax =   4.51946349779967E+00  2.99881599801369E+02
(PID.TID 0000.0001)      cg2d_init_res =   6.69000024542451E-06
(PID.TID 0000.0001)      cg2d_iters(min,last) =      -1      75
(PID.TID 0000.0001)      cg2d_last_res =   9.34813980963484E-12
(PID.TID 0000.0001) // =======================================================
(PID.TID 0000.0001) // Begin MONITOR dynamic field statistics
(PID.TID 0000.0001) // =======================================================
(PID.TID 0000.0001) %MON time_tsnumber                =                   358
(PID.TID 0000.0001) %MON time_secondsf                =   3.5800000000000E+04
(PID.TID 0000.0001) %MON dynstat_eta_max              =   5.7958254881757E+00
(PID.TID 0000.0001) %MON dynstat_eta_min              =  -1.4196863951810E+01
(PID.TID 0000.0001) %MON dynstat_eta_mean             =  -2.5098221184520E+00
(PID.TID 0000.0001) %MON dynstat_eta_sd               =   4.9519599524568E+00
(PID.TID 0000.0001) %MON dynstat_eta_del2             =   2.0714054823808E-01
(PID.TID 0000.0001) %MON dynstat_uvel_max             =   2.0695210057448E-03
(PID.TID 0000.0001) %MON dynstat_uvel_min             =  -3.5529284822459E-03
(PID.TID 0000.0001) %MON dynstat_uvel_mean            =  -1.1658754623461E-07
(PID.TID 0000.0001) %MON dynstat_uvel_sd              =   1.3925322365254E-04
(PID.TID 0000.0001) %MON dynstat_uvel_del2            =   3.0589221845387E-07
(PID.TID 0000.0001) %MON dynstat_vvel_max             =   4.2150480570458E-03
(PID.TID 0000.0001) %MON dynstat_vvel_min             =  -2.6800811473588E-03
(PID.TID 0000.0001) %MON dynstat_vvel_mean            =   1.5011065230090E-05
(PID.TID 0000.0001) %MON dynstat_vvel_sd              =   1.4914361375154E-04
(PID.TID 0000.0001) %MON dynstat_vvel_del2            =   4.1157807581700E-07
(PID.TID 0000.0001) %MON dynstat_wvel_max             =   1.5850746351083E-04
(PID.TID 0000.0001) %MON dynstat_wvel_min             =  -1.6404236833188E-04
(PID.TID 0000.0001) %MON dynstat_wvel_mean            =   6.6311810780951E-09
(PID.TID 0000.0001) %MON dynstat_wvel_sd              =   3.0553405250156E-05
(PID.TID 0000.0001) %MON dynstat_wvel_del2            =   1.4414589484362E-07
(PID.TID 0000.0001) %MON dynstat_theta_max            =   1.2000000000000E+00
(PID.TID 0000.0001) %MON dynstat_theta_min            =  -1.0000000000000E+00
(PID.TID 0000.0001) %MON dynstat_theta_mean           =   5.6906536940393E-01
(PID.TID 0000.0001) %MON dynstat_theta_sd             =   8.6856391236833E-01
(PID.TID 0000.0001) %MON dynstat_theta_del2           =   1.1038962169202E-06
(PID.TID 0000.0001) %MON dynstat_salt_max             =   3.4700000000000E+01
(PID.TID 0000.0001) %MON dynstat_salt_min             =   3.4000000000000E+01
(PID.TID 0000.0001) %MON dynstat_salt_mean            =   3.4499240283840E+01
(PID.TID 0000.0001) %MON dynstat_salt_sd              =   2.7635918051114E-01
(PID.TID 0000.0001) %MON dynstat_salt_del2            =   3.7525010897710E-07
(PID.TID 0000.0001) %MON advcfl_uvel_max              =   3.5529284822459E-04
(PID.TID 0000.0001) %MON advcfl_vvel_max              =   4.2150480570458E-04
(PID.TID 0000.0001) %MON advcfl_wvel_max              =   8.2021184165938E-04
(PID.TID 0000.0001) %MON advcfl_W_hf_max              =   8.2021184165938E-04
(PID.TID 0000.0001) %MON pe_b_mean                    =  -8.3159660290200E-01
(PID.TID 0000.0001) %MON ke_max                       =   8.8979337222423E-06
(PID.TID 0000.0001) %MON ke_mean                      =   2.0736392401625E-08
(PID.TID 0000.0001) %MON ke_vol                       =   4.2725317403107E+12
(PID.TID 0000.0001) // =======================================================
(PID.TID 0000.0001) // End MONITOR dynamic field statistics
(PID.TID 0000.0001) // =======================================================
(PID.TID 0000.0001) // =======================================================
(PID.TID 0000.0001) // Begin OBCS MONITOR field statistics
(PID.TID 0000.0001) // =======================================================
(PID.TID 0000.0001) %MON obc_N_vVel_max               =   1.4773072334470E-05
(PID.TID 0000.0001) %MON obc_N_vVel_min               =   1.4773072334470E-05
(PID.TID 0000.0001) %MON obc_N_vVel_mean              =   1.4773072334470E-05
(PID.TID 0000.0001) %MON obc_N_vVel_sd                =   2.1329541413358E-12
(PID.TID 0000.0001) %MON obc_N_vVel_Int               =   9.7502277407499E+02
(PID.TID 0000.0001) // =======================================================
(PID.TID 0000.0001) // End OBCS MONITOR field statistics
(PID.TID 0000.0001) // =======================================================
 cg2d: Sum(rhs),rhsMax =   4.51948772430796E+00  2.99881675116042E+02
(PID.TID 0000.0001)      cg2d_init_res =   6.67932981473209E-06
(PID.TID 0000.0001)      cg2d_iters(min,last) =      -1      75
(PID.TID 0000.0001)      cg2d_last_res =   9.44704603468695E-12
(PID.TID 0000.0001) // =======================================================
(PID.TID 0000.0001) // Begin MONITOR dynamic field statistics
(PID.TID 0000.0001) // =======================================================
(PID.TID 0000.0001) %MON time_tsnumber                =                   359
(PID.TID 0000.0001) %MON time_secondsf                =   3.5900000000000E+04
(PID.TID 0000.0001) %MON dynstat_eta_max              =   5.7957920468613E+00
(PID.TID 0000.0001) %MON dynstat_eta_min              =  -1.4196880515870E+01
(PID.TID 0000.0001) %MON dynstat_eta_mean             =  -2.5098362026516E+00
(PID.TID 0000.0001) %MON dynstat_eta_sd               =   4.9519645744399E+00
(PID.TID 0000.0001) %MON dynstat_eta_del2             =   2.0714055254647E-01
(PID.TID 0000.0001) %MON dynstat_uvel_max             =   2.0693677968777E-03
(PID.TID 0000.0001) %MON dynstat_uvel_min             =  -3.5594632194692E-03
(PID.TID 0000.0001) %MON dynstat_uvel_mean            =  -1.1651957900990E-07
(PID.TID 0000.0001) %MON dynstat_uvel_sd              =   1.3968328373182E-04
(PID.TID 0000.0001) %MON dynstat_uvel_del2            =   3.0579919596385E-07
(PID.TID 0000.0001) %MON dynstat_vvel_max             =   4.2210956263302E-03
(PID.TID 0000.0001) %MON dynstat_vvel_min             =  -2.6721736296444E-03
(PID.TID 0000.0001) %MON dynstat_vvel_mean            =   1.5006485383675E-05
(PID.TID 0000.0001) %MON dynstat_vvel_sd              =   1.4926338036343E-04
(PID.TID 0000.0001) %MON dynstat_vvel_del2            =   4.1083615046345E-07
(PID.TID 0000.0001) %MON dynstat_wvel_max             =   1.5792908622202E-04
(PID.TID 0000.0001) %MON dynstat_wvel_min             =  -1.6089602421975E-04
(PID.TID 0000.0001) %MON dynstat_wvel_mean            =   6.6131401983111E-09
(PID.TID 0000.0001) %MON dynstat_wvel_sd              =   3.0486372895738E-05
(PID.TID 0000.0001) %MON dynstat_wvel_del2            =   1.4365959427003E-07
(PID.TID 0000.0001) %MON dynstat_theta_max            =   1.2000000000000E+00
(PID.TID 0000.0001) %MON dynstat_theta_min            =  -1.0000000000000E+00
(PID.TID 0000.0001) %MON dynstat_theta_mean           =   5.6906509661180E-01
(PID.TID 0000.0001) %MON dynstat_theta_sd             =   8.6856377028219E-01
(PID.TID 0000.0001) %MON dynstat_theta_del2           =   1.1022160924161E-06
(PID.TID 0000.0001) %MON dynstat_salt_max             =   3.4700000000000E+01
(PID.TID 0000.0001) %MON dynstat_salt_min             =   3.4000000000000E+01
(PID.TID 0000.0001) %MON dynstat_salt_mean            =   3.4499240174650E+01
(PID.TID 0000.0001) %MON dynstat_salt_sd              =   2.7635912884781E-01
(PID.TID 0000.0001) %MON dynstat_salt_del2            =   3.7488791421767E-07
(PID.TID 0000.0001) %MON advcfl_uvel_max              =   3.5594632194691E-04
(PID.TID 0000.0001) %MON advcfl_vvel_max              =   4.2210956263302E-04
(PID.TID 0000.0001) %MON advcfl_wvel_max              =   8.0448012109877E-04
(PID.TID 0000.0001) %MON advcfl_W_hf_max              =   8.0448012109877E-04
(PID.TID 0000.0001) %MON pe_b_mean                    =  -8.3160066070095E-01
(PID.TID 0000.0001) %MON ke_max                       =   8.8942902518071E-06
(PID.TID 0000.0001) %MON ke_mean                      =   2.0812983446004E-08
(PID.TID 0000.0001) %MON ke_vol                       =   4.2725316566164E+12
(PID.TID 0000.0001) // =======================================================
(PID.TID 0000.0001) // End MONITOR dynamic field statistics
(PID.TID 0000.0001) // =======================================================
(PID.TID 0000.0001) // =======================================================
(PID.TID 0000.0001) // Begin OBCS MONITOR field statistics
(PID.TID 0000.0001) // =======================================================
(PID.TID 0000.0001) %MON obc_N_vVel_max               =   1.4770232045181E-05
(PID.TID 0000.0001) %MON obc_N_vVel_min               =   1.4770232045180E-05
(PID.TID 0000.0001) %MON obc_N_vVel_mean              =   1.4770232045180E-05
(PID.TID 0000.0001) %MON obc_N_vVel_sd                =   4.1833048937802E-12
(PID.TID 0000.0001) %MON obc_N_vVel_Int               =   9.7483531498189E+02
(PID.TID 0000.0001) // =======================================================
(PID.TID 0000.0001) // End OBCS MONITOR field statistics
(PID.TID 0000.0001) // =======================================================
 cg2d: Sum(rhs),rhsMax =   4.51951193848998E+00  2.99881750398288E+02
(PID.TID 0000.0001)      cg2d_init_res =   6.67010458745490E-06
(PID.TID 0000.0001)      cg2d_iters(min,last) =      -1      75
(PID.TID 0000.0001)      cg2d_last_res =   9.54654689640781E-12
(PID.TID 0000.0001) // =======================================================
(PID.TID 0000.0001) // Begin MONITOR dynamic field statistics
(PID.TID 0000.0001) // =======================================================
(PID.TID 0000.0001) %MON time_tsnumber                =                   360
(PID.TID 0000.0001) %MON time_secondsf                =   3.6000000000000E+04
(PID.TID 0000.0001) %MON dynstat_eta_max              =   5.7957586052087E+00
(PID.TID 0000.0001) %MON dynstat_eta_min              =  -1.4196897051143E+01
(PID.TID 0000.0001) %MON dynstat_eta_mean             =  -2.5098502797414E+00
(PID.TID 0000.0001) %MON dynstat_eta_sd               =   4.9519691934550E+00
(PID.TID 0000.0001) %MON dynstat_eta_del2             =   2.0714055689516E-01
(PID.TID 0000.0001) %MON dynstat_uvel_max             =   2.0691405533656E-03
(PID.TID 0000.0001) %MON dynstat_uvel_min             =  -3.5659147799461E-03
(PID.TID 0000.0001) %MON dynstat_uvel_mean            =  -1.1646199766966E-07
(PID.TID 0000.0001) %MON dynstat_uvel_sd              =   1.4011349742464E-04
(PID.TID 0000.0001) %MON dynstat_uvel_del2            =   3.0571101691448E-07
(PID.TID 0000.0001) %MON dynstat_vvel_max             =   4.2270369842123E-03
(PID.TID 0000.0001) %MON dynstat_vvel_min             =  -2.6642310761922E-03
(PID.TID 0000.0001) %MON dynstat_vvel_mean            =   1.5000596063776E-05
(PID.TID 0000.0001) %MON dynstat_vvel_sd              =   1.4938403009096E-04
(PID.TID 0000.0001) %MON dynstat_vvel_del2            =   4.1012294519940E-07
(PID.TID 0000.0001) %MON dynstat_wvel_max             =   1.5734924048629E-04
(PID.TID 0000.0001) %MON dynstat_wvel_min             =  -1.5542030970060E-04
(PID.TID 0000.0001) %MON dynstat_wvel_mean            =   6.5947156126296E-09
(PID.TID 0000.0001) %MON dynstat_wvel_sd              =   3.0421360456733E-05
(PID.TID 0000.0001) %MON dynstat_wvel_del2            =   1.4320459815371E-07
(PID.TID 0000.0001) %MON dynstat_theta_max            =   1.2000000000000E+00
(PID.TID 0000.0001) %MON dynstat_theta_min            =  -1.0000000000000E+00
(PID.TID 0000.0001) %MON dynstat_theta_mean           =   5.6906482347724E-01
(PID.TID 0000.0001) %MON dynstat_theta_sd             =   8.6856362802182E-01
(PID.TID 0000.0001) %MON dynstat_theta_del2           =   1.1005277505228E-06
(PID.TID 0000.0001) %MON dynstat_salt_max             =   3.4700000000000E+01
(PID.TID 0000.0001) %MON dynstat_salt_min             =   3.4000000000000E+01
(PID.TID 0000.0001) %MON dynstat_salt_mean            =   3.4499240065325E+01
(PID.TID 0000.0001) %MON dynstat_salt_sd              =   2.7635907711288E-01
(PID.TID 0000.0001) %MON dynstat_salt_del2            =   3.7452425031378E-07
(PID.TID 0000.0001) %MON advcfl_uvel_max              =   3.5659147799461E-04
(PID.TID 0000.0001) %MON advcfl_vvel_max              =   4.2270369842123E-04
(PID.TID 0000.0001) %MON advcfl_wvel_max              =   7.8674620243144E-04
(PID.TID 0000.0001) %MON advcfl_W_hf_max              =   7.8674620243144E-04
(PID.TID 0000.0001) %MON pe_b_mean                    =  -8.3160471604720E-01
(PID.TID 0000.0001) %MON ke_max                       =   8.8903632569456E-06
(PID.TID 0000.0001) %MON ke_mean                      =   2.0889903647555E-08
(PID.TID 0000.0001) %MON ke_vol                       =   4.2725315729562E+12
(PID.TID 0000.0001) // =======================================================
(PID.TID 0000.0001) // End MONITOR dynamic field statistics
(PID.TID 0000.0001) // =======================================================
(PID.TID 0000.0001) // =======================================================
(PID.TID 0000.0001) // Begin OBCS MONITOR field statistics
(PID.TID 0000.0001) // =======================================================
(PID.TID 0000.0001) %MON obc_N_vVel_max               =   1.4766180105863E-05
(PID.TID 0000.0001) %MON obc_N_vVel_min               =   1.4766180105863E-05
(PID.TID 0000.0001) %MON obc_N_vVel_mean              =   1.4766180105863E-05
(PID.TID 0000.0001) %MON obc_N_vVel_sd                =  -7.5480230895464E-24
(PID.TID 0000.0001) %MON obc_N_vVel_Int               =   9.7456788698696E+02
(PID.TID 0000.0001) // =======================================================
(PID.TID 0000.0001) // End OBCS MONITOR field statistics
(PID.TID 0000.0001) // =======================================================
 cg2d: Sum(rhs),rhsMax =   4.51953613795719E+00  2.99881825667052E+02
(PID.TID 0000.0001)      cg2d_init_res =   6.66259627615279E-06
(PID.TID 0000.0001)      cg2d_iters(min,last) =      -1      75
(PID.TID 0000.0001)      cg2d_last_res =   9.61287640032898E-12
(PID.TID 0000.0001) // =======================================================
(PID.TID 0000.0001) // Begin MONITOR dynamic field statistics
(PID.TID 0000.0001) // =======================================================
(PID.TID 0000.0001) %MON time_tsnumber                =                   361
(PID.TID 0000.0001) %MON time_secondsf                =   3.6100000000000E+04
(PID.TID 0000.0001) %MON dynstat_eta_max              =   5.7957251640423E+00
(PID.TID 0000.0001) %MON dynstat_eta_min              =  -1.4196913555602E+01
(PID.TID 0000.0001) %MON dynstat_eta_mean             =  -2.5098643485534E+00
(PID.TID 0000.0001) %MON dynstat_eta_sd               =   4.9519738093017E+00
(PID.TID 0000.0001) %MON dynstat_eta_del2             =   2.0714056128440E-01
(PID.TID 0000.0001) %MON dynstat_uvel_max             =   2.0688393874877E-03
(PID.TID 0000.0001) %MON dynstat_uvel_min             =  -3.5722830337118E-03
(PID.TID 0000.0001) %MON dynstat_uvel_mean            =  -1.1641671849804E-07
(PID.TID 0000.0001) %MON dynstat_uvel_sd              =   1.4054384611738E-04
(PID.TID 0000.0001) %MON dynstat_uvel_del2            =   3.0562766345990E-07
(PID.TID 0000.0001) %MON dynstat_vvel_max             =   4.2328725260683E-03
(PID.TID 0000.0001) %MON dynstat_vvel_min             =  -2.6562537072543E-03
(PID.TID 0000.0001) %MON dynstat_vvel_mean            =   1.4993634492670E-05
(PID.TID 0000.0001) %MON dynstat_vvel_sd              =   1.4950585429136E-04
(PID.TID 0000.0001) %MON dynstat_vvel_del2            =   4.0944618959961E-07
(PID.TID 0000.0001) %MON dynstat_wvel_max             =   1.5676795827921E-04
(PID.TID 0000.0001) %MON dynstat_wvel_min             =  -1.4768977725531E-04
(PID.TID 0000.0001) %MON dynstat_wvel_mean            =   6.5765049716719E-09
(PID.TID 0000.0001) %MON dynstat_wvel_sd              =   3.0359057009064E-05
(PID.TID 0000.0001) %MON dynstat_wvel_del2            =   1.4279123447944E-07
(PID.TID 0000.0001) %MON dynstat_theta_max            =   1.2000000000000E+00
(PID.TID 0000.0001) %MON dynstat_theta_min            =  -1.0000000000000E+00
(PID.TID 0000.0001) %MON dynstat_theta_mean           =   5.6906454999576E-01
(PID.TID 0000.0001) %MON dynstat_theta_sd             =   8.6856348562090E-01
(PID.TID 0000.0001) %MON dynstat_theta_del2           =   1.0988236031789E-06
(PID.TID 0000.0001) %MON dynstat_salt_max             =   3.4700000000000E+01
(PID.TID 0000.0001) %MON dynstat_salt_min             =   3.4000000000000E+01
(PID.TID 0000.0001) %MON dynstat_salt_mean            =   3.4499239955863E+01
(PID.TID 0000.0001) %MON dynstat_salt_sd              =   2.7635902531659E-01
(PID.TID 0000.0001) %MON dynstat_salt_del2            =   3.7415680209723E-07
(PID.TID 0000.0001) %MON advcfl_uvel_max              =   3.5722830337118E-04
(PID.TID 0000.0001) %MON advcfl_vvel_max              =   4.2328725260683E-04
(PID.TID 0000.0001) %MON advcfl_wvel_max              =   7.8383979139605E-04
(PID.TID 0000.0001) %MON advcfl_W_hf_max              =   7.8383979139605E-04
(PID.TID 0000.0001) %MON pe_b_mean                    =  -8.3160876868203E-01
(PID.TID 0000.0001) %MON ke_max                       =   8.8861549399526E-06
(PID.TID 0000.0001) %MON ke_mean                      =   2.0967198070950E-08
(PID.TID 0000.0001) %MON ke_vol                       =   4.2725314893383E+12
(PID.TID 0000.0001) // =======================================================
(PID.TID 0000.0001) // End MONITOR dynamic field statistics
(PID.TID 0000.0001) // =======================================================
(PID.TID 0000.0001) // =======================================================
(PID.TID 0000.0001) // Begin OBCS MONITOR field statistics
(PID.TID 0000.0001) // =======================================================
(PID.TID 0000.0001) %MON obc_N_vVel_max               =   1.4761092687391E-05
(PID.TID 0000.0001) %MON obc_N_vVel_min               =   1.4761092687391E-05
(PID.TID 0000.0001) %MON obc_N_vVel_mean              =   1.4761092687391E-05
(PID.TID 0000.0001) %MON obc_N_vVel_sd                =  -6.8500894477048E-24
(PID.TID 0000.0001) %MON obc_N_vVel_Int               =   9.7423211736780E+02
(PID.TID 0000.0001) // =======================================================
(PID.TID 0000.0001) // End OBCS MONITOR field statistics
(PID.TID 0000.0001) // =======================================================
 cg2d: Sum(rhs),rhsMax =   4.51956032071265E+00  2.99881900940840E+02
(PID.TID 0000.0001)      cg2d_init_res =   6.65695876260436E-06
(PID.TID 0000.0001)      cg2d_iters(min,last) =      -1      75
(PID.TID 0000.0001)      cg2d_last_res =   9.63225491645904E-12
(PID.TID 0000.0001) // =======================================================
(PID.TID 0000.0001) // Begin MONITOR dynamic field statistics
(PID.TID 0000.0001) // =======================================================
(PID.TID 0000.0001) %MON time_tsnumber                =                   362
(PID.TID 0000.0001) %MON time_secondsf                =   3.6200000000000E+04
(PID.TID 0000.0001) %MON dynstat_eta_max              =   5.7956917240440E+00
(PID.TID 0000.0001) %MON dynstat_eta_min              =  -1.4196930027811E+01
(PID.TID 0000.0001) %MON dynstat_eta_mean             =  -2.5098784081335E+00
(PID.TID 0000.0001) %MON dynstat_eta_sd               =   4.9519784218656E+00
(PID.TID 0000.0001) %MON dynstat_eta_del2             =   2.0714056571429E-01
(PID.TID 0000.0001) %MON dynstat_uvel_max             =   2.0684644159915E-03
(PID.TID 0000.0001) %MON dynstat_uvel_min             =  -3.5785678551603E-03
(PID.TID 0000.0001) %MON dynstat_uvel_mean            =  -1.1638524632403E-07
(PID.TID 0000.0001) %MON dynstat_uvel_sd              =   1.4097431142540E-04
(PID.TID 0000.0001) %MON dynstat_uvel_del2            =   3.0554911937847E-07
(PID.TID 0000.0001) %MON dynstat_vvel_max             =   4.2386026817285E-03
(PID.TID 0000.0001) %MON dynstat_vvel_min             =  -2.6482417111406E-03
(PID.TID 0000.0001) %MON dynstat_vvel_mean            =   1.4985863590935E-05
(PID.TID 0000.0001) %MON dynstat_vvel_sd              =   1.4962899184626E-04
(PID.TID 0000.0001) %MON dynstat_vvel_del2            =   4.0880941719836E-07
(PID.TID 0000.0001) %MON dynstat_wvel_max             =   1.5618527133135E-04
(PID.TID 0000.0001) %MON dynstat_wvel_min             =  -1.3781427168311E-04
(PID.TID 0000.0001) %MON dynstat_wvel_mean            =   6.5590785152045E-09
(PID.TID 0000.0001) %MON dynstat_wvel_sd              =   3.0299809799195E-05
(PID.TID 0000.0001) %MON dynstat_wvel_del2            =   1.4242433695801E-07
(PID.TID 0000.0001) %MON dynstat_theta_max            =   1.2000000000000E+00
(PID.TID 0000.0001) %MON dynstat_theta_min            =  -1.0000000000000E+00
(PID.TID 0000.0001) %MON dynstat_theta_mean           =   5.6906427616150E-01
(PID.TID 0000.0001) %MON dynstat_theta_sd             =   8.6856334305935E-01
(PID.TID 0000.0001) %MON dynstat_theta_del2           =   1.0971020053881E-06
(PID.TID 0000.0001) %MON dynstat_salt_max             =   3.4700000000000E+01
(PID.TID 0000.0001) %MON dynstat_salt_min             =   3.4000000000000E+01
(PID.TID 0000.0001) %MON dynstat_salt_mean            =   3.4499239846263E+01
(PID.TID 0000.0001) %MON dynstat_salt_sd              =   2.7635897345268E-01
(PID.TID 0000.0001) %MON dynstat_salt_del2            =   3.7378504702787E-07
(PID.TID 0000.0001) %MON advcfl_uvel_max              =   3.5785678551603E-04
(PID.TID 0000.0001) %MON advcfl_vvel_max              =   4.2386026817285E-04
(PID.TID 0000.0001) %MON advcfl_wvel_max              =   7.8092635665676E-04
(PID.TID 0000.0001) %MON advcfl_W_hf_max              =   7.8092635665676E-04
(PID.TID 0000.0001) %MON pe_b_mean                    =  -8.3161281840984E-01
(PID.TID 0000.0001) %MON ke_max                       =   8.8816675975399E-06
(PID.TID 0000.0001) %MON ke_mean                      =   2.1044889493669E-08
(PID.TID 0000.0001) %MON ke_vol                       =   4.2725314057696E+12
(PID.TID 0000.0001) // =======================================================
(PID.TID 0000.0001) // End MONITOR dynamic field statistics
(PID.TID 0000.0001) // =======================================================
(PID.TID 0000.0001) // =======================================================
(PID.TID 0000.0001) // Begin OBCS MONITOR field statistics
(PID.TID 0000.0001) // =======================================================
(PID.TID 0000.0001) %MON obc_N_vVel_max               =   1.4755172396713E-05
(PID.TID 0000.0001) %MON obc_N_vVel_min               =   1.4755172396713E-05
(PID.TID 0000.0001) %MON obc_N_vVel_mean              =   1.4755172396713E-05
(PID.TID 0000.0001) %MON obc_N_vVel_sd                =   2.8307794304939E-12
(PID.TID 0000.0001) %MON obc_N_vVel_Int               =   9.7384137818304E+02
(PID.TID 0000.0001) // =======================================================
(PID.TID 0000.0001) // End OBCS MONITOR field statistics
(PID.TID 0000.0001) // =======================================================
 cg2d: Sum(rhs),rhsMax =   4.51958448522006E+00  2.99881976237339E+02
(PID.TID 0000.0001)      cg2d_init_res =   6.65320619875181E-06
(PID.TID 0000.0001)      cg2d_iters(min,last) =      -1      75
(PID.TID 0000.0001)      cg2d_last_res =   9.62169980425046E-12
(PID.TID 0000.0001) // =======================================================
(PID.TID 0000.0001) // Begin MONITOR dynamic field statistics
(PID.TID 0000.0001) // =======================================================
(PID.TID 0000.0001) %MON time_tsnumber                =                   363
(PID.TID 0000.0001) %MON time_secondsf                =   3.6300000000000E+04
(PID.TID 0000.0001) %MON dynstat_eta_max              =   5.7956582857190E+00
(PID.TID 0000.0001) %MON dynstat_eta_min              =  -1.4196946466961E+01
(PID.TID 0000.0001) %MON dynstat_eta_mean             =  -2.5098924577767E+00
(PID.TID 0000.0001) %MON dynstat_eta_sd               =   4.9519830311257E+00
(PID.TID 0000.0001) %MON dynstat_eta_del2             =   2.0714057018529E-01
(PID.TID 0000.0001) %MON dynstat_uvel_max             =   2.0680157599043E-03
(PID.TID 0000.0001) %MON dynstat_uvel_min             =  -3.5847691230859E-03
(PID.TID 0000.0001) %MON dynstat_uvel_mean            =  -1.1636858828541E-07
(PID.TID 0000.0001) %MON dynstat_uvel_sd              =   1.4140487519760E-04
(PID.TID 0000.0001) %MON dynstat_uvel_del2            =   3.0547537085886E-07
(PID.TID 0000.0001) %MON dynstat_vvel_max             =   4.2442279049375E-03
(PID.TID 0000.0001) %MON dynstat_vvel_min             =  -2.6401952563937E-03
(PID.TID 0000.0001) %MON dynstat_vvel_mean            =   1.4977562814294E-05
(PID.TID 0000.0001) %MON dynstat_vvel_sd              =   1.4975341287183E-04
(PID.TID 0000.0001) %MON dynstat_vvel_del2            =   4.0821156145127E-07
(PID.TID 0000.0001) %MON dynstat_wvel_max             =   1.5560121106759E-04
(PID.TID 0000.0001) %MON dynstat_wvel_min             =  -1.4061690704543E-04
(PID.TID 0000.0001) %MON dynstat_wvel_mean            =   6.5429621472285E-09
(PID.TID 0000.0001) %MON dynstat_wvel_sd              =   3.0243585014428E-05
(PID.TID 0000.0001) %MON dynstat_wvel_del2            =   1.4210269282169E-07
(PID.TID 0000.0001) %MON dynstat_theta_max            =   1.2000000000000E+00
(PID.TID 0000.0001) %MON dynstat_theta_min            =  -1.0000000000000E+00
(PID.TID 0000.0001) %MON dynstat_theta_mean           =   5.6906400196895E-01
(PID.TID 0000.0001) %MON dynstat_theta_sd             =   8.6856320034247E-01
(PID.TID 0000.0001) %MON dynstat_theta_del2           =   1.0953665767622E-06
(PID.TID 0000.0001) %MON dynstat_salt_max             =   3.4700000000000E+01
(PID.TID 0000.0001) %MON dynstat_salt_min             =   3.4000000000000E+01
(PID.TID 0000.0001) %MON dynstat_salt_mean            =   3.4499239736523E+01
(PID.TID 0000.0001) %MON dynstat_salt_sd              =   2.7635892152248E-01
(PID.TID 0000.0001) %MON dynstat_salt_del2            =   3.7341003878993E-07
(PID.TID 0000.0001) %MON advcfl_uvel_max              =   3.5847691230859E-04
(PID.TID 0000.0001) %MON advcfl_vvel_max              =   4.2442279049375E-04
(PID.TID 0000.0001) %MON advcfl_wvel_max              =   7.7800605533796E-04
(PID.TID 0000.0001) %MON advcfl_W_hf_max              =   7.7800605533796E-04
(PID.TID 0000.0001) %MON pe_b_mean                    =  -8.3161686510624E-01
(PID.TID 0000.0001) %MON ke_max                       =   8.8769035844277E-06
(PID.TID 0000.0001) %MON ke_mean                      =   2.1122975737017E-08
(PID.TID 0000.0001) %MON ke_vol                       =   4.2725313222557E+12
(PID.TID 0000.0001) // =======================================================
(PID.TID 0000.0001) // End MONITOR dynamic field statistics
(PID.TID 0000.0001) // =======================================================
(PID.TID 0000.0001) // =======================================================
(PID.TID 0000.0001) // Begin OBCS MONITOR field statistics
(PID.TID 0000.0001) // =======================================================
(PID.TID 0000.0001) %MON obc_N_vVel_max               =   1.4748640893702E-05
(PID.TID 0000.0001) %MON obc_N_vVel_min               =   1.4748640893702E-05
(PID.TID 0000.0001) %MON obc_N_vVel_mean              =   1.4748640893702E-05
(PID.TID 0000.0001) %MON obc_N_vVel_sd                =  -1.5535485879512E-23
(PID.TID 0000.0001) %MON obc_N_vVel_Int               =   9.7341029898433E+02
(PID.TID 0000.0001) // =======================================================
(PID.TID 0000.0001) // End OBCS MONITOR field statistics
(PID.TID 0000.0001) // =======================================================
 cg2d: Sum(rhs),rhsMax =   4.51960863044381E+00  2.99882051572763E+02
(PID.TID 0000.0001)      cg2d_init_res =   6.65120138505089E-06
(PID.TID 0000.0001)      cg2d_iters(min,last) =      -1      75
(PID.TID 0000.0001)      cg2d_last_res =   9.60103518621219E-12
(PID.TID 0000.0001) // =======================================================
(PID.TID 0000.0001) // Begin MONITOR dynamic field statistics
(PID.TID 0000.0001) // =======================================================
(PID.TID 0000.0001) %MON time_tsnumber                =                   364
(PID.TID 0000.0001) %MON time_secondsf                =   3.6400000000000E+04
(PID.TID 0000.0001) %MON dynstat_eta_max              =   5.7956248493995E+00
(PID.TID 0000.0001) %MON dynstat_eta_min              =  -1.4196962872843E+01
(PID.TID 0000.0001) %MON dynstat_eta_mean             =  -2.5099064970434E+00
(PID.TID 0000.0001) %MON dynstat_eta_sd               =   4.9519876371500E+00
(PID.TID 0000.0001) %MON dynstat_eta_del2             =   2.0714057469747E-01
(PID.TID 0000.0001) %MON dynstat_uvel_max             =   2.0674935445118E-03
(PID.TID 0000.0001) %MON dynstat_uvel_min             =  -3.5908867204639E-03
(PID.TID 0000.0001) %MON dynstat_uvel_mean            =  -1.1636724283679E-07
(PID.TID 0000.0001) %MON dynstat_uvel_sd              =   1.4183551950249E-04
(PID.TID 0000.0001) %MON dynstat_uvel_del2            =   3.0540640631651E-07
(PID.TID 0000.0001) %MON dynstat_vvel_max             =   4.2497486618220E-03
(PID.TID 0000.0001) %MON dynstat_vvel_min             =  -2.6321145040873E-03
(PID.TID 0000.0001) %MON dynstat_vvel_mean            =   1.4969018684845E-05
(PID.TID 0000.0001) %MON dynstat_vvel_sd              =   1.4987892461060E-04
(PID.TID 0000.0001) %MON dynstat_vvel_del2            =   4.0764716639399E-07
(PID.TID 0000.0001) %MON dynstat_wvel_max             =   1.5501580876695E-04
(PID.TID 0000.0001) %MON dynstat_wvel_min             =  -1.4461741417940E-04
(PID.TID 0000.0001) %MON dynstat_wvel_mean            =   6.5286262213108E-09
(PID.TID 0000.0001) %MON dynstat_wvel_sd              =   3.0189979309742E-05
(PID.TID 0000.0001) %MON dynstat_wvel_del2            =   1.4181931269618E-07
(PID.TID 0000.0001) %MON dynstat_theta_max            =   1.2000000000000E+00
(PID.TID 0000.0001) %MON dynstat_theta_min            =  -1.0000000000000E+00
(PID.TID 0000.0001) %MON dynstat_theta_mean           =   5.6906372741341E-01
(PID.TID 0000.0001) %MON dynstat_theta_sd             =   8.6856305747531E-01
(PID.TID 0000.0001) %MON dynstat_theta_del2           =   1.0936258881687E-06
(PID.TID 0000.0001) %MON dynstat_salt_max             =   3.4700000000000E+01
(PID.TID 0000.0001) %MON dynstat_salt_min             =   3.4000000000000E+01
(PID.TID 0000.0001) %MON dynstat_salt_mean            =   3.4499239626641E+01
(PID.TID 0000.0001) %MON dynstat_salt_sd              =   2.7635886952758E-01
(PID.TID 0000.0001) %MON dynstat_salt_del2            =   3.7303429595427E-07
(PID.TID 0000.0001) %MON advcfl_uvel_max              =   3.5908867204639E-04
(PID.TID 0000.0001) %MON advcfl_vvel_max              =   4.2497486618220E-04
(PID.TID 0000.0001) %MON advcfl_wvel_max              =   7.7507904383473E-04
(PID.TID 0000.0001) %MON advcfl_W_hf_max              =   7.7507904383473E-04
(PID.TID 0000.0001) %MON pe_b_mean                    =  -8.3162090872086E-01
(PID.TID 0000.0001) %MON ke_max                       =   8.8718652778275E-06
(PID.TID 0000.0001) %MON ke_mean                      =   2.1201430298554E-08
(PID.TID 0000.0001) %MON ke_vol                       =   4.2725312388008E+12
(PID.TID 0000.0001) // =======================================================
(PID.TID 0000.0001) // End MONITOR dynamic field statistics
(PID.TID 0000.0001) // =======================================================
(PID.TID 0000.0001) // =======================================================
(PID.TID 0000.0001) // Begin OBCS MONITOR field statistics
(PID.TID 0000.0001) // =======================================================
(PID.TID 0000.0001) %MON obc_N_vVel_max               =   1.4741731131231E-05
(PID.TID 0000.0001) %MON obc_N_vVel_min               =   1.4741731131230E-05
(PID.TID 0000.0001) %MON obc_N_vVel_mean              =   1.4741731131230E-05
(PID.TID 0000.0001) %MON obc_N_vVel_sd                =   1.8541762108612E-12
(PID.TID 0000.0001) %MON obc_N_vVel_Int               =   9.7295425466119E+02
(PID.TID 0000.0001) // =======================================================
(PID.TID 0000.0001) // End OBCS MONITOR field statistics
(PID.TID 0000.0001) // =======================================================
 cg2d: Sum(rhs),rhsMax =   4.51963275586572E+00  2.99882126961661E+02
(PID.TID 0000.0001)      cg2d_init_res =   6.65066616531828E-06
(PID.TID 0000.0001)      cg2d_iters(min,last) =      -1      75
(PID.TID 0000.0001)      cg2d_last_res =   9.58354189516241E-12
(PID.TID 0000.0001) // =======================================================
(PID.TID 0000.0001) // Begin MONITOR dynamic field statistics
(PID.TID 0000.0001) // =======================================================
(PID.TID 0000.0001) %MON time_tsnumber                =                   365
(PID.TID 0000.0001) %MON time_secondsf                =   3.6500000000000E+04
(PID.TID 0000.0001) %MON dynstat_eta_max              =   5.7955914152416E+00
(PID.TID 0000.0001) %MON dynstat_eta_min              =  -1.4196979245828E+01
(PID.TID 0000.0001) %MON dynstat_eta_mean             =  -2.5099205257678E+00
(PID.TID 0000.0001) %MON dynstat_eta_sd               =   4.9519922401046E+00
(PID.TID 0000.0001) %MON dynstat_eta_del2             =   2.0714057925150E-01
(PID.TID 0000.0001) %MON dynstat_uvel_max             =   2.0668978994211E-03
(PID.TID 0000.0001) %MON dynstat_uvel_min             =  -3.5969205347833E-03
(PID.TID 0000.0001) %MON dynstat_uvel_mean            =  -1.1638122023201E-07
(PID.TID 0000.0001) %MON dynstat_uvel_sd              =   1.4226622661802E-04
(PID.TID 0000.0001) %MON dynstat_uvel_del2            =   3.0534221703175E-07
(PID.TID 0000.0001) %MON dynstat_vvel_max             =   4.2551654199929E-03
(PID.TID 0000.0001) %MON dynstat_vvel_min             =  -2.6239996199404E-03
(PID.TID 0000.0001) %MON dynstat_vvel_mean            =   1.4960515537346E-05
(PID.TID 0000.0001) %MON dynstat_vvel_sd              =   1.5000519857477E-04
(PID.TID 0000.0001) %MON dynstat_vvel_del2            =   4.0710717257696E-07
(PID.TID 0000.0001) %MON dynstat_wvel_max             =   1.5442909561165E-04
(PID.TID 0000.0001) %MON dynstat_wvel_min             =  -1.4772637818555E-04
(PID.TID 0000.0001) %MON dynstat_wvel_mean            =   6.5164692079878E-09
(PID.TID 0000.0001) %MON dynstat_wvel_sd              =   3.0138280326785E-05
(PID.TID 0000.0001) %MON dynstat_wvel_del2            =   1.4156247142181E-07
(PID.TID 0000.0001) %MON dynstat_theta_max            =   1.2000000000000E+00
(PID.TID 0000.0001) %MON dynstat_theta_min            =  -1.0000000000000E+00
(PID.TID 0000.0001) %MON dynstat_theta_mean           =   5.6906345249142E-01
(PID.TID 0000.0001) %MON dynstat_theta_sd             =   8.6856291448123E-01
(PID.TID 0000.0001) %MON dynstat_theta_del2           =   1.0918907142293E-06
(PID.TID 0000.0001) %MON dynstat_salt_max             =   3.4700000000000E+01
(PID.TID 0000.0001) %MON dynstat_salt_min             =   3.4000000000000E+01
(PID.TID 0000.0001) %MON dynstat_salt_mean            =   3.4499239516615E+01
(PID.TID 0000.0001) %MON dynstat_salt_sd              =   2.7635881747536E-01
(PID.TID 0000.0001) %MON dynstat_salt_del2            =   3.7266099692059E-07
(PID.TID 0000.0001) %MON advcfl_uvel_max              =   3.5969205347833E-04
(PID.TID 0000.0001) %MON advcfl_vvel_max              =   4.2551654199929E-04
(PID.TID 0000.0001) %MON advcfl_wvel_max              =   7.7214547805825E-04
(PID.TID 0000.0001) %MON advcfl_W_hf_max              =   7.7214547805825E-04
(PID.TID 0000.0001) %MON pe_b_mean                    =  -8.3162494927857E-01
(PID.TID 0000.0001) %MON ke_max                       =   8.8665550392639E-06
(PID.TID 0000.0001) %MON ke_mean                      =   2.1280206181170E-08
(PID.TID 0000.0001) %MON ke_vol                       =   4.2725311554076E+12
(PID.TID 0000.0001) // =======================================================
(PID.TID 0000.0001) // End MONITOR dynamic field statistics
(PID.TID 0000.0001) // =======================================================
(PID.TID 0000.0001) // =======================================================
(PID.TID 0000.0001) // Begin OBCS MONITOR field statistics
(PID.TID 0000.0001) // =======================================================
(PID.TID 0000.0001) %MON obc_N_vVel_max               =   1.4734680001812E-05
(PID.TID 0000.0001) %MON obc_N_vVel_min               =   1.4734680001812E-05
(PID.TID 0000.0001) %MON obc_N_vVel_mean              =   1.4734680001812E-05
(PID.TID 0000.0001) %MON obc_N_vVel_sd                =   3.0207343696899E-12
(PID.TID 0000.0001) %MON obc_N_vVel_Int               =   9.7248888011958E+02
(PID.TID 0000.0001) // =======================================================
(PID.TID 0000.0001) // End OBCS MONITOR field statistics
(PID.TID 0000.0001) // =======================================================
 cg2d: Sum(rhs),rhsMax =   4.51965686144882E+00  2.99882202416531E+02
(PID.TID 0000.0001)      cg2d_init_res =   6.65122585383322E-06
(PID.TID 0000.0001)      cg2d_iters(min,last) =      -1      75
(PID.TID 0000.0001)      cg2d_last_res =   9.57510040237150E-12
(PID.TID 0000.0001) // =======================================================
(PID.TID 0000.0001) // Begin MONITOR dynamic field statistics
(PID.TID 0000.0001) // =======================================================
(PID.TID 0000.0001) %MON time_tsnumber                =                   366
(PID.TID 0000.0001) %MON time_secondsf                =   3.6600000000000E+04
(PID.TID 0000.0001) %MON dynstat_eta_max              =   5.7955579832429E+00
(PID.TID 0000.0001) %MON dynstat_eta_min              =  -1.4196995586847E+01
(PID.TID 0000.0001) %MON dynstat_eta_mean             =  -2.5099345440338E+00
(PID.TID 0000.0001) %MON dynstat_eta_sd               =   4.9519968402395E+00
(PID.TID 0000.0001) %MON dynstat_eta_del2             =   2.0714058384875E-01
(PID.TID 0000.0001) %MON dynstat_uvel_max             =   2.0662289581869E-03
(PID.TID 0000.0001) %MON dynstat_uvel_min             =  -3.6028704582223E-03
(PID.TID 0000.0001) %MON dynstat_uvel_mean            =  -1.1641005692943E-07
(PID.TID 0000.0001) %MON dynstat_uvel_sd              =   1.4269697900092E-04
(PID.TID 0000.0001) %MON dynstat_uvel_del2            =   3.0528279702879E-07
(PID.TID 0000.0001) %MON dynstat_vvel_max             =   4.2604786383746E-03
(PID.TID 0000.0001) %MON dynstat_vvel_min             =  -2.6158507858698E-03
(PID.TID 0000.0001) %MON dynstat_vvel_mean            =   1.4952326625278E-05
(PID.TID 0000.0001) %MON dynstat_vvel_sd              =   1.5013181481630E-04
(PID.TID 0000.0001) %MON dynstat_vvel_del2            =   4.0658015520812E-07
(PID.TID 0000.0001) %MON dynstat_wvel_max             =   1.5384110254031E-04
(PID.TID 0000.0001) %MON dynstat_wvel_min             =  -1.4989082986305E-04
(PID.TID 0000.0001) %MON dynstat_wvel_mean            =   6.5068071040653E-09
(PID.TID 0000.0001) %MON dynstat_wvel_sd              =   3.0087566530319E-05
(PID.TID 0000.0001) %MON dynstat_wvel_del2            =   1.4131735302841E-07
(PID.TID 0000.0001) %MON dynstat_theta_max            =   1.2000000000000E+00
(PID.TID 0000.0001) %MON dynstat_theta_min            =  -1.0000000000000E+00
(PID.TID 0000.0001) %MON dynstat_theta_mean           =   5.6906317719843E-01
(PID.TID 0000.0001) %MON dynstat_theta_sd             =   8.6856277135014E-01
(PID.TID 0000.0001) %MON dynstat_theta_del2           =   1.0901735694522E-06
(PID.TID 0000.0001) %MON dynstat_salt_max             =   3.4700000000000E+01
(PID.TID 0000.0001) %MON dynstat_salt_min             =   3.4000000000000E+01
(PID.TID 0000.0001) %MON dynstat_salt_mean            =   3.4499239406445E+01
(PID.TID 0000.0001) %MON dynstat_salt_sd              =   2.7635876536241E-01
(PID.TID 0000.0001) %MON dynstat_salt_del2            =   3.7229384225831E-07
(PID.TID 0000.0001) %MON advcfl_uvel_max              =   3.6028704582223E-04
(PID.TID 0000.0001) %MON advcfl_vvel_max              =   4.2604786383746E-04
(PID.TID 0000.0001) %MON advcfl_wvel_max              =   7.6920551270157E-04
(PID.TID 0000.0001) %MON advcfl_W_hf_max              =   7.6920551270157E-04
(PID.TID 0000.0001) %MON pe_b_mean                    =  -8.3162898686937E-01
(PID.TID 0000.0001) %MON ke_max                       =   8.8609751811058E-06
(PID.TID 0000.0001) %MON ke_mean                      =   2.1359242315977E-08
(PID.TID 0000.0001) %MON ke_vol                       =   4.2725310720769E+12
(PID.TID 0000.0001) // =======================================================
(PID.TID 0000.0001) // End MONITOR dynamic field statistics
(PID.TID 0000.0001) // =======================================================
(PID.TID 0000.0001) // =======================================================
(PID.TID 0000.0001) // Begin OBCS MONITOR field statistics
(PID.TID 0000.0001) // =======================================================
(PID.TID 0000.0001) %MON obc_N_vVel_max               =   1.4727720688921E-05
(PID.TID 0000.0001) %MON obc_N_vVel_min               =   1.4727720688921E-05
(PID.TID 0000.0001) %MON obc_N_vVel_mean              =   1.4727720688921E-05
(PID.TID 0000.0001) %MON obc_N_vVel_sd                =   9.5117232664742E-13
(PID.TID 0000.0001) %MON obc_N_vVel_Int               =   9.7202956546880E+02
(PID.TID 0000.0001) // =======================================================
(PID.TID 0000.0001) // End OBCS MONITOR field statistics
(PID.TID 0000.0001) // =======================================================
 cg2d: Sum(rhs),rhsMax =   4.51968094763662E+00  2.99882277947553E+02
(PID.TID 0000.0001)      cg2d_init_res =   6.65242943024271E-06
(PID.TID 0000.0001)      cg2d_iters(min,last) =      -1      75
(PID.TID 0000.0001)      cg2d_last_res =   9.57601037768947E-12
(PID.TID 0000.0001) // =======================================================
(PID.TID 0000.0001) // Begin MONITOR dynamic field statistics
(PID.TID 0000.0001) // =======================================================
(PID.TID 0000.0001) %MON time_tsnumber                =                   367
(PID.TID 0000.0001) %MON time_secondsf                =   3.6700000000000E+04
(PID.TID 0000.0001) %MON dynstat_eta_max              =   5.7955245532598E+00
(PID.TID 0000.0001) %MON dynstat_eta_min              =  -1.4197011897334E+01
(PID.TID 0000.0001) %MON dynstat_eta_mean             =  -2.5099485521730E+00
(PID.TID 0000.0001) %MON dynstat_eta_sd               =   4.9520014378603E+00
(PID.TID 0000.0001) %MON dynstat_eta_del2             =   2.0714058848961E-01
(PID.TID 0000.0001) %MON dynstat_uvel_max             =   2.0654868584012E-03
(PID.TID 0000.0001) %MON dynstat_uvel_min             =  -3.6087363877426E-03
(PID.TID 0000.0001) %MON dynstat_uvel_mean            =  -1.1645283061587E-07
(PID.TID 0000.0001) %MON dynstat_uvel_sd              =   1.4312775928285E-04
(PID.TID 0000.0001) %MON dynstat_uvel_del2            =   3.0522814334175E-07
(PID.TID 0000.0001) %MON dynstat_vvel_max             =   4.2656887576049E-03
(PID.TID 0000.0001) %MON dynstat_vvel_min             =  -2.6076682105538E-03
(PID.TID 0000.0001) %MON dynstat_vvel_mean            =   1.4944705807872E-05
(PID.TID 0000.0001) %MON dynstat_vvel_sd              =   1.5025831563513E-04
(PID.TID 0000.0001) %MON dynstat_vvel_del2            =   4.0605383467156E-07
(PID.TID 0000.0001) %MON dynstat_wvel_max             =   1.5325186054153E-04
(PID.TID 0000.0001) %MON dynstat_wvel_min             =  -1.5456209544355E-04
(PID.TID 0000.0001) %MON dynstat_wvel_mean            =   6.4998659657302E-09
(PID.TID 0000.0001) %MON dynstat_wvel_sd              =   3.0036831074306E-05
(PID.TID 0000.0001) %MON dynstat_wvel_del2            =   1.4106805509411E-07
(PID.TID 0000.0001) %MON dynstat_theta_max            =   1.2000000000000E+00
(PID.TID 0000.0001) %MON dynstat_theta_min            =  -1.0000000000000E+00
(PID.TID 0000.0001) %MON dynstat_theta_mean           =   5.6906290152994E-01
(PID.TID 0000.0001) %MON dynstat_theta_sd             =   8.6856262805675E-01
(PID.TID 0000.0001) %MON dynstat_theta_del2           =   1.0884879260252E-06
(PID.TID 0000.0001) %MON dynstat_salt_max             =   3.4700000000000E+01
(PID.TID 0000.0001) %MON dynstat_salt_min             =   3.4000000000000E+01
(PID.TID 0000.0001) %MON dynstat_salt_mean            =   3.4499239296127E+01
(PID.TID 0000.0001) %MON dynstat_salt_sd              =   2.7635871318064E-01
(PID.TID 0000.0001) %MON dynstat_salt_del2            =   3.7193675711813E-07
(PID.TID 0000.0001) %MON advcfl_uvel_max              =   3.6087363877426E-04
(PID.TID 0000.0001) %MON advcfl_vvel_max              =   4.2656887576049E-04
(PID.TID 0000.0001) %MON advcfl_wvel_max              =   7.7281047721773E-04
(PID.TID 0000.0001) %MON advcfl_W_hf_max              =   7.7281047721773E-04
(PID.TID 0000.0001) %MON pe_b_mean                    =  -8.3163302164472E-01
(PID.TID 0000.0001) %MON ke_max                       =   8.8551279412508E-06
(PID.TID 0000.0001) %MON ke_mean                      =   2.1438471446955E-08
(PID.TID 0000.0001) %MON ke_vol                       =   4.2725309888084E+12
(PID.TID 0000.0001) // =======================================================
(PID.TID 0000.0001) // End MONITOR dynamic field statistics
(PID.TID 0000.0001) // =======================================================
(PID.TID 0000.0001) // =======================================================
(PID.TID 0000.0001) // Begin OBCS MONITOR field statistics
(PID.TID 0000.0001) // =======================================================
(PID.TID 0000.0001) %MON obc_N_vVel_max               =   1.4721075327390E-05
(PID.TID 0000.0001) %MON obc_N_vVel_min               =   1.4721075327390E-05
(PID.TID 0000.0001) %MON obc_N_vVel_mean              =   1.4721075327390E-05
(PID.TID 0000.0001) %MON obc_N_vVel_sd                =   2.5421149729252E-12
(PID.TID 0000.0001) %MON obc_N_vVel_Int               =   9.7159097160773E+02
(PID.TID 0000.0001) // =======================================================
(PID.TID 0000.0001) // End OBCS MONITOR field statistics
(PID.TID 0000.0001) // =======================================================
 cg2d: Sum(rhs),rhsMax =   4.51970501530814E+00  2.99882353562374E+02
(PID.TID 0000.0001)      cg2d_init_res =   6.65380664569443E-06
(PID.TID 0000.0001)      cg2d_iters(min,last) =      -1      75
(PID.TID 0000.0001)      cg2d_last_res =   9.58942365483840E-12
(PID.TID 0000.0001) // =======================================================
(PID.TID 0000.0001) // Begin MONITOR dynamic field statistics
(PID.TID 0000.0001) // =======================================================
(PID.TID 0000.0001) %MON time_tsnumber                =                   368
(PID.TID 0000.0001) %MON time_secondsf                =   3.6800000000000E+04
(PID.TID 0000.0001) %MON dynstat_eta_max              =   5.7954911250161E+00
(PID.TID 0000.0001) %MON dynstat_eta_min              =  -1.4197028179188E+01
(PID.TID 0000.0001) %MON dynstat_eta_mean             =  -2.5099625507375E+00
(PID.TID 0000.0001) %MON dynstat_eta_sd               =   4.9520060333252E+00
(PID.TID 0000.0001) %MON dynstat_eta_del2             =   2.0714059317450E-01
(PID.TID 0000.0001) %MON dynstat_uvel_max             =   2.0646717415415E-03
(PID.TID 0000.0001) %MON dynstat_uvel_min             =  -3.6145182248578E-03
(PID.TID 0000.0001) %MON dynstat_uvel_mean            =  -1.1650817913186E-07
(PID.TID 0000.0001) %MON dynstat_uvel_sd              =   1.4355855024596E-04
(PID.TID 0000.0001) %MON dynstat_uvel_del2            =   3.0517825575632E-07
(PID.TID 0000.0001) %MON dynstat_vvel_max             =   4.2707961916300E-03
(PID.TID 0000.0001) %MON dynstat_vvel_min             =  -2.5994521388073E-03
(PID.TID 0000.0001) %MON dynstat_vvel_mean            =   1.4937880089598E-05
(PID.TID 0000.0001) %MON dynstat_vvel_sd              =   1.5038426274884E-04
(PID.TID 0000.0001) %MON dynstat_vvel_del2            =   4.0551666506157E-07
(PID.TID 0000.0001) %MON dynstat_wvel_max             =   1.5266140075353E-04
(PID.TID 0000.0001) %MON dynstat_wvel_min             =  -1.5827009622047E-04
(PID.TID 0000.0001) %MON dynstat_wvel_mean            =   6.4957774670610E-09
(PID.TID 0000.0001) %MON dynstat_wvel_sd              =   2.9985114254453E-05
(PID.TID 0000.0001) %MON dynstat_wvel_del2            =   1.4079968206310E-07
(PID.TID 0000.0001) %MON dynstat_theta_max            =   1.2000000000000E+00
(PID.TID 0000.0001) %MON dynstat_theta_min            =  -1.0000000000000E+00
(PID.TID 0000.0001) %MON dynstat_theta_mean           =   5.6906262548070E-01
(PID.TID 0000.0001) %MON dynstat_theta_sd             =   8.6856248461285E-01
(PID.TID 0000.0001) %MON dynstat_theta_del2           =   1.0868453340565E-06
(PID.TID 0000.0001) %MON dynstat_salt_max             =   3.4700000000000E+01
(PID.TID 0000.0001) %MON dynstat_salt_min             =   3.4000000000000E+01
(PID.TID 0000.0001) %MON dynstat_salt_mean            =   3.4499239185662E+01
(PID.TID 0000.0001) %MON dynstat_salt_sd              =   2.7635866093360E-01
(PID.TID 0000.0001) %MON dynstat_salt_del2            =   3.7159315956289E-07
(PID.TID 0000.0001) %MON advcfl_uvel_max              =   3.6145182248578E-04
(PID.TID 0000.0001) %MON advcfl_vvel_max              =   4.2707961916300E-04
(PID.TID 0000.0001) %MON advcfl_wvel_max              =   7.9135048110236E-04
(PID.TID 0000.0001) %MON advcfl_W_hf_max              =   7.9135048110236E-04
(PID.TID 0000.0001) %MON pe_b_mean                    =  -8.3163705380835E-01
(PID.TID 0000.0001) %MON ke_max                       =   8.8490154567835E-06
(PID.TID 0000.0001) %MON ke_mean                      =   2.1517828592253E-08
(PID.TID 0000.0001) %MON ke_vol                       =   4.2725309056001E+12
(PID.TID 0000.0001) // =======================================================
(PID.TID 0000.0001) // End MONITOR dynamic field statistics
(PID.TID 0000.0001) // =======================================================
(PID.TID 0000.0001) // =======================================================
(PID.TID 0000.0001) // Begin OBCS MONITOR field statistics
(PID.TID 0000.0001) // =======================================================
(PID.TID 0000.0001) %MON obc_N_vVel_max               =   1.4714948210436E-05
(PID.TID 0000.0001) %MON obc_N_vVel_min               =   1.4714948210436E-05
(PID.TID 0000.0001) %MON obc_N_vVel_mean              =   1.4714948210436E-05
(PID.TID 0000.0001) %MON obc_N_vVel_sd                =  -4.6787403397531E-24
(PID.TID 0000.0001) %MON obc_N_vVel_Int               =   9.7118658188879E+02
(PID.TID 0000.0001) // =======================================================
(PID.TID 0000.0001) // End OBCS MONITOR field statistics
(PID.TID 0000.0001) // =======================================================
 cg2d: Sum(rhs),rhsMax =   4.51972906576337E+00  2.99882429266016E+02
(PID.TID 0000.0001)      cg2d_init_res =   6.65490191240379E-06
(PID.TID 0000.0001)      cg2d_iters(min,last) =      -1      75
(PID.TID 0000.0001)      cg2d_last_res =   9.61689351275807E-12
(PID.TID 0000.0001) // =======================================================
(PID.TID 0000.0001) // Begin MONITOR dynamic field statistics
(PID.TID 0000.0001) // =======================================================
(PID.TID 0000.0001) %MON time_tsnumber                =                   369
(PID.TID 0000.0001) %MON time_secondsf                =   3.6900000000000E+04
(PID.TID 0000.0001) %MON dynstat_eta_max              =   5.7954576981254E+00
(PID.TID 0000.0001) %MON dynstat_eta_min              =  -1.4197044434691E+01
(PID.TID 0000.0001) %MON dynstat_eta_mean             =  -2.5099765404914E+00
(PID.TID 0000.0001) %MON dynstat_eta_sd               =   4.9520106270271E+00
(PID.TID 0000.0001) %MON dynstat_eta_del2             =   2.0714059790339E-01
(PID.TID 0000.0001) %MON dynstat_uvel_max             =   2.0637837530316E-03
(PID.TID 0000.0001) %MON dynstat_uvel_min             =  -3.6202158757452E-03
(PID.TID 0000.0001) %MON dynstat_uvel_mean            =  -1.1657434702550E-07
(PID.TID 0000.0001) %MON dynstat_uvel_sd              =   1.4398933483219E-04
(PID.TID 0000.0001) %MON dynstat_uvel_del2            =   3.0513313671834E-07
(PID.TID 0000.0001) %MON dynstat_vvel_max             =   4.2758013208042E-03
(PID.TID 0000.0001) %MON dynstat_vvel_min             =  -2.5912028597581E-03
(PID.TID 0000.0001) %MON dynstat_vvel_mean            =   1.4932043253538E-05
(PID.TID 0000.0001) %MON dynstat_vvel_sd              =   1.5050929042951E-04
(PID.TID 0000.0001) %MON dynstat_vvel_del2            =   4.0495929076692E-07
(PID.TID 0000.0001) %MON dynstat_wvel_max             =   1.5206975431276E-04
(PID.TID 0000.0001) %MON dynstat_wvel_min             =  -1.5974896520927E-04
(PID.TID 0000.0001) %MON dynstat_wvel_mean            =   6.4945795940043E-09
(PID.TID 0000.0001) %MON dynstat_wvel_sd              =   2.9931627029054E-05
(PID.TID 0000.0001) %MON dynstat_wvel_del2            =   1.4050024901268E-07
(PID.TID 0000.0001) %MON dynstat_theta_max            =   1.2000000000000E+00
(PID.TID 0000.0001) %MON dynstat_theta_min            =  -1.0000000000000E+00
(PID.TID 0000.0001) %MON dynstat_theta_mean           =   5.6906234904676E-01
(PID.TID 0000.0001) %MON dynstat_theta_sd             =   8.6856234096129E-01
(PID.TID 0000.0001) %MON dynstat_theta_del2           =   1.0852540095876E-06
(PID.TID 0000.0001) %MON dynstat_salt_max             =   3.4700000000000E+01
(PID.TID 0000.0001) %MON dynstat_salt_min             =   3.4000000000000E+01
(PID.TID 0000.0001) %MON dynstat_salt_mean            =   3.4499239075047E+01
(PID.TID 0000.0001) %MON dynstat_salt_sd              =   2.7635860860316E-01
(PID.TID 0000.0001) %MON dynstat_salt_del2            =   3.7126545983987E-07
(PID.TID 0000.0001) %MON advcfl_uvel_max              =   3.6202158757452E-04
(PID.TID 0000.0001) %MON advcfl_vvel_max              =   4.2758013208042E-04
(PID.TID 0000.0001) %MON advcfl_wvel_max              =   7.9874482604635E-04
(PID.TID 0000.0001) %MON advcfl_W_hf_max              =   7.9874482604635E-04
(PID.TID 0000.0001) %MON pe_b_mean                    =  -8.3164108361342E-01
(PID.TID 0000.0001) %MON ke_max                       =   8.8426397422345E-06
(PID.TID 0000.0001) %MON ke_mean                      =   2.1597258964438E-08
(PID.TID 0000.0001) %MON ke_vol                       =   4.2725308224486E+12
(PID.TID 0000.0001) // =======================================================
(PID.TID 0000.0001) // End MONITOR dynamic field statistics
(PID.TID 0000.0001) // =======================================================
(PID.TID 0000.0001) // =======================================================
(PID.TID 0000.0001) // Begin OBCS MONITOR field statistics
(PID.TID 0000.0001) // =======================================================
(PID.TID 0000.0001) %MON obc_N_vVel_max               =   1.4709519756266E-05
(PID.TID 0000.0001) %MON obc_N_vVel_min               =   1.4709519756266E-05
(PID.TID 0000.0001) %MON obc_N_vVel_mean              =   1.4709519756266E-05
(PID.TID 0000.0001) %MON obc_N_vVel_sd                =  -7.4963243012618E-25
(PID.TID 0000.0001) %MON obc_N_vVel_Int               =   9.7082830391358E+02
(PID.TID 0000.0001) // =======================================================
(PID.TID 0000.0001) // End OBCS MONITOR field statistics
(PID.TID 0000.0001) // =======================================================
 cg2d: Sum(rhs),rhsMax =   4.51975310063262E+00  2.99882505060862E+02
(PID.TID 0000.0001)      cg2d_init_res =   6.65532094110745E-06
(PID.TID 0000.0001)      cg2d_iters(min,last) =      -1      75
(PID.TID 0000.0001)      cg2d_last_res =   9.65694037190709E-12
(PID.TID 0000.0001) // =======================================================
(PID.TID 0000.0001) // Begin MONITOR dynamic field statistics
(PID.TID 0000.0001) // =======================================================
(PID.TID 0000.0001) %MON time_tsnumber                =                   370
(PID.TID 0000.0001) %MON time_secondsf                =   3.7000000000000E+04
(PID.TID 0000.0001) %MON dynstat_eta_max              =   5.7954242721184E+00
(PID.TID 0000.0001) %MON dynstat_eta_min              =  -1.4197060666416E+01
(PID.TID 0000.0001) %MON dynstat_eta_mean             =  -2.5099905223598E+00
(PID.TID 0000.0001) %MON dynstat_eta_sd               =   4.9520152193753E+00
(PID.TID 0000.0001) %MON dynstat_eta_del2             =   2.0714060267567E-01
(PID.TID 0000.0001) %MON dynstat_uvel_max             =   2.0628230415035E-03
(PID.TID 0000.0001) %MON dynstat_uvel_min             =  -3.6258292515314E-03
(PID.TID 0000.0001) %MON dynstat_uvel_mean            =  -1.1664930872027E-07
(PID.TID 0000.0001) %MON dynstat_uvel_sd              =   1.4442009614629E-04
(PID.TID 0000.0001) %MON dynstat_uvel_del2            =   3.0509279152350E-07
(PID.TID 0000.0001) %MON dynstat_vvel_max             =   4.2807044859696E-03
(PID.TID 0000.0001) %MON dynstat_vvel_min             =  -2.5829207134542E-03
(PID.TID 0000.0001) %MON dynstat_vvel_mean            =   1.4927350699765E-05
(PID.TID 0000.0001) %MON dynstat_vvel_sd              =   1.5063314827060E-04
(PID.TID 0000.0001) %MON dynstat_vvel_del2            =   4.0437568985962E-07
(PID.TID 0000.0001) %MON dynstat_wvel_max             =   1.5156035952299E-04
(PID.TID 0000.0001) %MON dynstat_wvel_min             =  -1.5896784523624E-04
(PID.TID 0000.0001) %MON dynstat_wvel_mean            =   6.4962163062325E-09
(PID.TID 0000.0001) %MON dynstat_wvel_sd              =   2.9875850417072E-05
(PID.TID 0000.0001) %MON dynstat_wvel_del2            =   1.4016216320186E-07
(PID.TID 0000.0001) %MON dynstat_theta_max            =   1.2000000000000E+00
(PID.TID 0000.0001) %MON dynstat_theta_min            =  -1.0000000000000E+00
(PID.TID 0000.0001) %MON dynstat_theta_mean           =   5.6906207222327E-01
(PID.TID 0000.0001) %MON dynstat_theta_sd             =   8.6856219701261E-01
(PID.TID 0000.0001) %MON dynstat_theta_del2           =   1.0837177105029E-06
(PID.TID 0000.0001) %MON dynstat_salt_max             =   3.4700000000000E+01
(PID.TID 0000.0001) %MON dynstat_salt_min             =   3.4000000000000E+01
(PID.TID 0000.0001) %MON dynstat_salt_mean            =   3.4499238964280E+01
(PID.TID 0000.0001) %MON dynstat_salt_sd              =   2.7635855616071E-01
(PID.TID 0000.0001) %MON dynstat_salt_del2            =   3.7095473212387E-07
(PID.TID 0000.0001) %MON advcfl_uvel_max              =   3.6258292515314E-04
(PID.TID 0000.0001) %MON advcfl_vvel_max              =   4.2807044859696E-04
(PID.TID 0000.0001) %MON advcfl_wvel_max              =   7.9483922618121E-04
(PID.TID 0000.0001) %MON advcfl_W_hf_max              =   7.9483922618121E-04
(PID.TID 0000.0001) %MON pe_b_mean                    =  -8.3164511134594E-01
(PID.TID 0000.0001) %MON ke_max                       =   8.8360026731931E-06
(PID.TID 0000.0001) %MON ke_mean                      =   2.1676724386966E-08
(PID.TID 0000.0001) %MON ke_vol                       =   4.2725307393495E+12
(PID.TID 0000.0001) // =======================================================
(PID.TID 0000.0001) // End MONITOR dynamic field statistics
(PID.TID 0000.0001) // =======================================================
(PID.TID 0000.0001) // =======================================================
(PID.TID 0000.0001) // Begin OBCS MONITOR field statistics
(PID.TID 0000.0001) // =======================================================
(PID.TID 0000.0001) %MON obc_N_vVel_max               =   1.4704941677305E-05
(PID.TID 0000.0001) %MON obc_N_vVel_min               =   1.4704941677305E-05
(PID.TID 0000.0001) %MON obc_N_vVel_mean              =   1.4704941677305E-05
(PID.TID 0000.0001) %MON obc_N_vVel_sd                =  -1.9102702271146E-23
(PID.TID 0000.0001) %MON obc_N_vVel_Int               =   9.7052615070213E+02
(PID.TID 0000.0001) // =======================================================
(PID.TID 0000.0001) // End OBCS MONITOR field statistics
(PID.TID 0000.0001) // =======================================================
 cg2d: Sum(rhs),rhsMax =   4.51977712181726E+00  2.99882580946711E+02
(PID.TID 0000.0001)      cg2d_init_res =   6.65477350753790E-06
(PID.TID 0000.0001)      cg2d_iters(min,last) =      -1      75
(PID.TID 0000.0001)      cg2d_last_res =   9.70478789626877E-12
(PID.TID 0000.0001) // =======================================================
(PID.TID 0000.0001) // Begin MONITOR dynamic field statistics
(PID.TID 0000.0001) // =======================================================
(PID.TID 0000.0001) %MON time_tsnumber                =                   371
(PID.TID 0000.0001) %MON time_secondsf                =   3.7100000000000E+04
(PID.TID 0000.0001) %MON dynstat_eta_max              =   5.7953908464685E+00
(PID.TID 0000.0001) %MON dynstat_eta_min              =  -1.4197076877134E+01
(PID.TID 0000.0001) %MON dynstat_eta_mean             =  -2.5100044973971E+00
(PID.TID 0000.0001) %MON dynstat_eta_sd               =   4.9520198108008E+00
(PID.TID 0000.0001) %MON dynstat_eta_del2             =   2.0714060749098E-01
(PID.TID 0000.0001) %MON dynstat_uvel_max             =   2.0617897591234E-03
(PID.TID 0000.0001) %MON dynstat_uvel_min             =  -3.6313582683163E-03
(PID.TID 0000.0001) %MON dynstat_uvel_mean            =  -1.1673077997022E-07
(PID.TID 0000.0001) %MON dynstat_uvel_sd              =   1.4485081745368E-04
(PID.TID 0000.0001) %MON dynstat_uvel_del2            =   3.0505722786176E-07
(PID.TID 0000.0001) %MON dynstat_vvel_max             =   4.2855059846101E-03
(PID.TID 0000.0001) %MON dynstat_vvel_min             =  -2.5746060944005E-03
(PID.TID 0000.0001) %MON dynstat_vvel_mean            =   1.4923915640956E-05
(PID.TID 0000.0001) %MON dynstat_vvel_sd              =   1.5075572726471E-04
(PID.TID 0000.0001) %MON dynstat_vvel_del2            =   4.0376385400548E-07
(PID.TID 0000.0001) %MON dynstat_wvel_max             =   1.5088302718076E-04
(PID.TID 0000.0001) %MON dynstat_wvel_min             =  -1.5592922302512E-04
(PID.TID 0000.0001) %MON dynstat_wvel_mean            =   6.5005413990593E-09
(PID.TID 0000.0001) %MON dynstat_wvel_sd              =   2.9817597284236E-05
(PID.TID 0000.0001) %MON dynstat_wvel_del2            =   1.3978310324680E-07
(PID.TID 0000.0001) %MON dynstat_theta_max            =   1.2000000000000E+00
(PID.TID 0000.0001) %MON dynstat_theta_min            =  -1.0000000000000E+00
(PID.TID 0000.0001) %MON dynstat_theta_mean           =   5.6906179500494E-01
(PID.TID 0000.0001) %MON dynstat_theta_sd             =   8.6856205276721E-01
(PID.TID 0000.0001) %MON dynstat_theta_del2           =   1.0822359054272E-06
(PID.TID 0000.0001) %MON dynstat_salt_max             =   3.4700000000000E+01
(PID.TID 0000.0001) %MON dynstat_salt_min             =   3.4000000000000E+01
(PID.TID 0000.0001) %MON dynstat_salt_mean            =   3.4499238853359E+01
(PID.TID 0000.0001) %MON dynstat_salt_sd              =   2.7635850360632E-01
(PID.TID 0000.0001) %MON dynstat_salt_del2            =   3.7066082521591E-07
(PID.TID 0000.0001) %MON advcfl_uvel_max              =   3.6313582683163E-04
(PID.TID 0000.0001) %MON advcfl_vvel_max              =   4.2855059846101E-04
(PID.TID 0000.0001) %MON advcfl_wvel_max              =   7.7964611512559E-04
(PID.TID 0000.0001) %MON advcfl_W_hf_max              =   7.7964611512559E-04
(PID.TID 0000.0001) %MON pe_b_mean                    =  -8.3164913731678E-01
(PID.TID 0000.0001) %MON ke_max                       =   8.8291059756141E-06
(PID.TID 0000.0001) %MON ke_mean                      =   2.1756207247395E-08
(PID.TID 0000.0001) %MON ke_vol                       =   4.2725306562972E+12
(PID.TID 0000.0001) // =======================================================
(PID.TID 0000.0001) // End MONITOR dynamic field statistics
(PID.TID 0000.0001) // =======================================================
(PID.TID 0000.0001) // =======================================================
(PID.TID 0000.0001) // Begin OBCS MONITOR field statistics
(PID.TID 0000.0001) // =======================================================
(PID.TID 0000.0001) %MON obc_N_vVel_max               =   1.4701332987511E-05
(PID.TID 0000.0001) %MON obc_N_vVel_min               =   1.4701332987511E-05
(PID.TID 0000.0001) %MON obc_N_vVel_mean              =   1.4701332987511E-05
(PID.TID 0000.0001) %MON obc_N_vVel_sd                =   3.0420524490773E-12
(PID.TID 0000.0001) %MON obc_N_vVel_Int               =   9.7028797717572E+02
(PID.TID 0000.0001) // =======================================================
(PID.TID 0000.0001) // End OBCS MONITOR field statistics
(PID.TID 0000.0001) // =======================================================
 cg2d: Sum(rhs),rhsMax =   4.51980113143704E+00  2.99882656920920E+02
(PID.TID 0000.0001)      cg2d_init_res =   6.65308172845300E-06
(PID.TID 0000.0001)      cg2d_iters(min,last) =      -1      75
(PID.TID 0000.0001)      cg2d_last_res =   9.75325083160895E-12
(PID.TID 0000.0001) // =======================================================
(PID.TID 0000.0001) // Begin MONITOR dynamic field statistics
(PID.TID 0000.0001) // =======================================================
(PID.TID 0000.0001) %MON time_tsnumber                =                   372
(PID.TID 0000.0001) %MON time_secondsf                =   3.7200000000000E+04
(PID.TID 0000.0001) %MON dynstat_eta_max              =   5.7953574206304E+00
(PID.TID 0000.0001) %MON dynstat_eta_min              =  -1.4197093069732E+01
(PID.TID 0000.0001) %MON dynstat_eta_mean             =  -2.5100184667584E+00
(PID.TID 0000.0001) %MON dynstat_eta_sd               =   4.9520244017354E+00
(PID.TID 0000.0001) %MON dynstat_eta_del2             =   2.0714061234887E-01
(PID.TID 0000.0001) %MON dynstat_uvel_max             =   2.0606840614594E-03
(PID.TID 0000.0001) %MON dynstat_uvel_min             =  -3.6368028467887E-03
(PID.TID 0000.0001) %MON dynstat_uvel_mean            =  -1.1681627529334E-07
(PID.TID 0000.0001) %MON dynstat_uvel_sd              =   1.4528148217540E-04
(PID.TID 0000.0001) %MON dynstat_uvel_del2            =   3.0502645553240E-07
(PID.TID 0000.0001) %MON dynstat_vvel_max             =   4.2902060686796E-03
(PID.TID 0000.0001) %MON dynstat_vvel_min             =  -2.5662594556009E-03
(PID.TID 0000.0001) %MON dynstat_vvel_mean            =   1.4921806805990E-05
(PID.TID 0000.0001) %MON dynstat_vvel_sd              =   1.5087706721709E-04
(PID.TID 0000.0001) %MON dynstat_vvel_del2            =   4.0312594485250E-07
(PID.TID 0000.0001) %MON dynstat_wvel_max             =   1.5028800988810E-04
(PID.TID 0000.0001) %MON dynstat_wvel_min             =  -1.5066937774065E-04
(PID.TID 0000.0001) %MON dynstat_wvel_mean            =   6.5073294091965E-09
(PID.TID 0000.0001) %MON dynstat_wvel_sd              =   2.9757030959357E-05
(PID.TID 0000.0001) %MON dynstat_wvel_del2            =   1.3936621694571E-07
(PID.TID 0000.0001) %MON dynstat_theta_max            =   1.2000000000000E+00
(PID.TID 0000.0001) %MON dynstat_theta_min            =  -1.0000000000000E+00
(PID.TID 0000.0001) %MON dynstat_theta_mean           =   5.6906151738740E-01
(PID.TID 0000.0001) %MON dynstat_theta_sd             =   8.6856190828422E-01
(PID.TID 0000.0001) %MON dynstat_theta_del2           =   1.0808042382037E-06
(PID.TID 0000.0001) %MON dynstat_salt_max             =   3.4700000000000E+01
(PID.TID 0000.0001) %MON dynstat_salt_min             =   3.4000000000000E+01
(PID.TID 0000.0001) %MON dynstat_salt_mean            =   3.4499238742284E+01
(PID.TID 0000.0001) %MON dynstat_salt_sd              =   2.7635845095858E-01
(PID.TID 0000.0001) %MON dynstat_salt_del2            =   3.7038248546111E-07
(PID.TID 0000.0001) %MON advcfl_uvel_max              =   3.6368028467887E-04
(PID.TID 0000.0001) %MON advcfl_vvel_max              =   4.2902060686796E-04
(PID.TID 0000.0001) %MON advcfl_wvel_max              =   7.5334688870323E-04
(PID.TID 0000.0001) %MON advcfl_W_hf_max              =   7.5334688870323E-04
(PID.TID 0000.0001) %MON pe_b_mean                    =  -8.3165316185465E-01
(PID.TID 0000.0001) %MON ke_max                       =   8.8219512204857E-06
(PID.TID 0000.0001) %MON ke_mean                      =   2.1835711671989E-08
(PID.TID 0000.0001) %MON ke_vol                       =   4.2725305732855E+12
(PID.TID 0000.0001) // =======================================================
(PID.TID 0000.0001) // End MONITOR dynamic field statistics
(PID.TID 0000.0001) // =======================================================
(PID.TID 0000.0001) // =======================================================
(PID.TID 0000.0001) // Begin OBCS MONITOR field statistics
(PID.TID 0000.0001) // =======================================================
(PID.TID 0000.0001) %MON obc_N_vVel_max               =   1.4698777054124E-05
(PID.TID 0000.0001) %MON obc_N_vVel_min               =   1.4698777054124E-05
(PID.TID 0000.0001) %MON obc_N_vVel_mean              =   1.4698777054124E-05
(PID.TID 0000.0001) %MON obc_N_vVel_sd                =  -1.8818358935581E-23
(PID.TID 0000.0001) %MON obc_N_vVel_Int               =   9.7011928557220E+02
(PID.TID 0000.0001) // =======================================================
(PID.TID 0000.0001) // End OBCS MONITOR field statistics
(PID.TID 0000.0001) // =======================================================
 cg2d: Sum(rhs),rhsMax =   4.51982513174496E+00  2.99882732978605E+02
(PID.TID 0000.0001)      cg2d_init_res =   6.65018170815107E-06
(PID.TID 0000.0001)      cg2d_iters(min,last) =      -1      75
(PID.TID 0000.0001)      cg2d_last_res =   9.79354363564331E-12
(PID.TID 0000.0001) // =======================================================
(PID.TID 0000.0001) // Begin MONITOR dynamic field statistics
(PID.TID 0000.0001) // =======================================================
(PID.TID 0000.0001) %MON time_tsnumber                =                   373
(PID.TID 0000.0001) %MON time_secondsf                =   3.7300000000000E+04
(PID.TID 0000.0001) %MON dynstat_eta_max              =   5.7953239940653E+00
(PID.TID 0000.0001) %MON dynstat_eta_min              =  -1.4197109247098E+01
(PID.TID 0000.0001) %MON dynstat_eta_mean             =  -2.5100324316538E+00
(PID.TID 0000.0001) %MON dynstat_eta_sd               =   4.9520289925999E+00
(PID.TID 0000.0001) %MON dynstat_eta_del2             =   2.0714061724969E-01
(PID.TID 0000.0001) %MON dynstat_uvel_max             =   2.0595061075232E-03
(PID.TID 0000.0001) %MON dynstat_uvel_min             =  -3.6421629129639E-03
(PID.TID 0000.0001) %MON dynstat_uvel_mean            =  -1.1690330243374E-07
(PID.TID 0000.0001) %MON dynstat_uvel_sd              =   1.4571207390609E-04
(PID.TID 0000.0001) %MON dynstat_uvel_del2            =   3.0500048631406E-07
(PID.TID 0000.0001) %MON dynstat_vvel_max             =   4.2948049439575E-03
(PID.TID 0000.0001) %MON dynstat_vvel_min             =  -2.5578813078875E-03
(PID.TID 0000.0001) %MON dynstat_vvel_mean            =   1.4921047674937E-05
(PID.TID 0000.0001) %MON dynstat_vvel_sd              =   1.5099734398679E-04
(PID.TID 0000.0001) %MON dynstat_vvel_del2            =   4.0246790356049E-07
(PID.TID 0000.0001) %MON dynstat_wvel_max             =   1.4969193264302E-04
(PID.TID 0000.0001) %MON dynstat_wvel_min             =  -1.4325830850087E-04
(PID.TID 0000.0001) %MON dynstat_wvel_mean            =   6.5162838126644E-09
(PID.TID 0000.0001) %MON dynstat_wvel_sd              =   2.9694637475553E-05
(PID.TID 0000.0001) %MON dynstat_wvel_del2            =   1.3891961239080E-07
(PID.TID 0000.0001) %MON dynstat_theta_max            =   1.2000000000000E+00
(PID.TID 0000.0001) %MON dynstat_theta_min            =  -1.0000000000000E+00
(PID.TID 0000.0001) %MON dynstat_theta_mean           =   5.6906123936660E-01
(PID.TID 0000.0001) %MON dynstat_theta_sd             =   8.6856176362678E-01
(PID.TID 0000.0001) %MON dynstat_theta_del2           =   1.0794150254182E-06
(PID.TID 0000.0001) %MON dynstat_salt_max             =   3.4700000000000E+01
(PID.TID 0000.0001) %MON dynstat_salt_min             =   3.4000000000000E+01
(PID.TID 0000.0001) %MON dynstat_salt_mean            =   3.4499238631052E+01
(PID.TID 0000.0001) %MON dynstat_salt_sd              =   2.7635839823774E-01
(PID.TID 0000.0001) %MON dynstat_salt_del2            =   3.7011746326417E-07
(PID.TID 0000.0001) %MON advcfl_uvel_max              =   3.6421629129639E-04
(PID.TID 0000.0001) %MON advcfl_vvel_max              =   4.2948049439575E-04
(PID.TID 0000.0001) %MON advcfl_wvel_max              =   7.4845966321508E-04
(PID.TID 0000.0001) %MON advcfl_W_hf_max              =   7.4845966321508E-04
(PID.TID 0000.0001) %MON pe_b_mean                    =  -8.3165718529327E-01
(PID.TID 0000.0001) %MON ke_max                       =   8.8145398260728E-06
(PID.TID 0000.0001) %MON ke_mean                      =   2.1915261683316E-08
(PID.TID 0000.0001) %MON ke_vol                       =   4.2725304903075E+12
(PID.TID 0000.0001) // =======================================================
(PID.TID 0000.0001) // End MONITOR dynamic field statistics
(PID.TID 0000.0001) // =======================================================
(PID.TID 0000.0001) // =======================================================
(PID.TID 0000.0001) // Begin OBCS MONITOR field statistics
(PID.TID 0000.0001) // =======================================================
(PID.TID 0000.0001) %MON obc_N_vVel_max               =   1.4697320368013E-05
(PID.TID 0000.0001) %MON obc_N_vVel_min               =   1.4697320368012E-05
(PID.TID 0000.0001) %MON obc_N_vVel_mean              =   1.4697320368012E-05
(PID.TID 0000.0001) %MON obc_N_vVel_sd                =   3.6308664272545E-12
(PID.TID 0000.0001) %MON obc_N_vVel_Int               =   9.7002314428882E+02
(PID.TID 0000.0001) // =======================================================
(PID.TID 0000.0001) // End OBCS MONITOR field statistics
(PID.TID 0000.0001) // =======================================================
 cg2d: Sum(rhs),rhsMax =   4.51984912504571E+00  2.99882809112977E+02
(PID.TID 0000.0001)      cg2d_init_res =   6.64611274821469E-06
(PID.TID 0000.0001)      cg2d_iters(min,last) =      -1      75
(PID.TID 0000.0001)      cg2d_last_res =   9.82497727130748E-12
(PID.TID 0000.0001) // =======================================================
(PID.TID 0000.0001) // Begin MONITOR dynamic field statistics
(PID.TID 0000.0001) // =======================================================
(PID.TID 0000.0001) %MON time_tsnumber                =                   374
(PID.TID 0000.0001) %MON time_secondsf                =   3.7400000000000E+04
(PID.TID 0000.0001) %MON dynstat_eta_max              =   5.7952905662593E+00
(PID.TID 0000.0001) %MON dynstat_eta_min              =  -1.4197125412058E+01
(PID.TID 0000.0001) %MON dynstat_eta_mean             =  -2.5100463933066E+00
(PID.TID 0000.0001) %MON dynstat_eta_sd               =   4.9520335837762E+00
(PID.TID 0000.0001) %MON dynstat_eta_del2             =   2.0714062219342E-01
(PID.TID 0000.0001) %MON dynstat_uvel_max             =   2.0582560594074E-03
(PID.TID 0000.0001) %MON dynstat_uvel_min             =  -3.6474383979362E-03
(PID.TID 0000.0001) %MON dynstat_uvel_mean            =  -1.1698941765163E-07
(PID.TID 0000.0001) %MON dynstat_uvel_sd              =   1.4614257640352E-04
(PID.TID 0000.0001) %MON dynstat_uvel_del2            =   3.0497933351663E-07
(PID.TID 0000.0001) %MON dynstat_vvel_max             =   4.2993027709084E-03
(PID.TID 0000.0001) %MON dynstat_vvel_min             =  -2.5494722191857E-03
(PID.TID 0000.0001) %MON dynstat_vvel_mean            =   1.4921617190195E-05
(PID.TID 0000.0001) %MON dynstat_vvel_sd              =   1.5111683945871E-04
(PID.TID 0000.0001) %MON dynstat_vvel_del2            =   4.0179858278648E-07
(PID.TID 0000.0001) %MON dynstat_wvel_max             =   1.4909482767597E-04
(PID.TID 0000.0001) %MON dynstat_wvel_min             =  -1.3643726813903E-04
(PID.TID 0000.0001) %MON dynstat_wvel_mean            =   6.5270458924457E-09
(PID.TID 0000.0001) %MON dynstat_wvel_sd              =   2.9631156893757E-05
(PID.TID 0000.0001) %MON dynstat_wvel_del2            =   1.3845522578707E-07
(PID.TID 0000.0001) %MON dynstat_theta_max            =   1.2000000000000E+00
(PID.TID 0000.0001) %MON dynstat_theta_min            =  -1.0000000000000E+00
(PID.TID 0000.0001) %MON dynstat_theta_mean           =   5.6906096093869E-01
(PID.TID 0000.0001) %MON dynstat_theta_sd             =   8.6856161885525E-01
(PID.TID 0000.0001) %MON dynstat_theta_del2           =   1.0780581650774E-06
(PID.TID 0000.0001) %MON dynstat_salt_max             =   3.4700000000000E+01
(PID.TID 0000.0001) %MON dynstat_salt_min             =   3.4000000000000E+01
(PID.TID 0000.0001) %MON dynstat_salt_mean            =   3.4499238519663E+01
(PID.TID 0000.0001) %MON dynstat_salt_sd              =   2.7635834546290E-01
(PID.TID 0000.0001) %MON dynstat_salt_del2            =   3.6986286372761E-07
(PID.TID 0000.0001) %MON advcfl_uvel_max              =   3.6474383979362E-04
(PID.TID 0000.0001) %MON advcfl_vvel_max              =   4.2993027709084E-04
(PID.TID 0000.0001) %MON advcfl_wvel_max              =   7.4547413837983E-04
(PID.TID 0000.0001) %MON advcfl_W_hf_max              =   7.4547413837983E-04
(PID.TID 0000.0001) %MON pe_b_mean                    =  -8.3166120795833E-01
(PID.TID 0000.0001) %MON ke_max                       =   8.8068730623263E-06
(PID.TID 0000.0001) %MON ke_mean                      =   2.1994896753593E-08
(PID.TID 0000.0001) %MON ke_vol                       =   4.2725304073560E+12
(PID.TID 0000.0001) // =======================================================
(PID.TID 0000.0001) // End MONITOR dynamic field statistics
(PID.TID 0000.0001) // =======================================================
(PID.TID 0000.0001) // =======================================================
(PID.TID 0000.0001) // Begin OBCS MONITOR field statistics
(PID.TID 0000.0001) // =======================================================
(PID.TID 0000.0001) %MON obc_N_vVel_max               =   1.4696972421617E-05
(PID.TID 0000.0001) %MON obc_N_vVel_min               =   1.4696972421617E-05
(PID.TID 0000.0001) %MON obc_N_vVel_mean              =   1.4696972421617E-05
(PID.TID 0000.0001) %MON obc_N_vVel_sd                =  -1.2924697071141E-24
(PID.TID 0000.0001) %MON obc_N_vVel_Int               =   9.7000017982673E+02
(PID.TID 0000.0001) // =======================================================
(PID.TID 0000.0001) // End OBCS MONITOR field statistics
(PID.TID 0000.0001) // =======================================================
 cg2d: Sum(rhs),rhsMax =   4.51987311358543E+00  2.99882885315583E+02
(PID.TID 0000.0001)      cg2d_init_res =   6.64099893578511E-06
(PID.TID 0000.0001)      cg2d_iters(min,last) =      -1      75
(PID.TID 0000.0001)      cg2d_last_res =   9.85530863168886E-12
(PID.TID 0000.0001) // =======================================================
(PID.TID 0000.0001) // Begin MONITOR dynamic field statistics
(PID.TID 0000.0001) // =======================================================
(PID.TID 0000.0001) %MON time_tsnumber                =                   375
(PID.TID 0000.0001) %MON time_secondsf                =   3.7500000000000E+04
(PID.TID 0000.0001) %MON dynstat_eta_max              =   5.7952571367576E+00
(PID.TID 0000.0001) %MON dynstat_eta_min              =  -1.4197141567251E+01
(PID.TID 0000.0001) %MON dynstat_eta_mean             =  -2.5100603528932E+00
(PID.TID 0000.0001) %MON dynstat_eta_sd               =   4.9520381756041E+00
(PID.TID 0000.0001) %MON dynstat_eta_del2             =   2.0714062718010E-01
(PID.TID 0000.0001) %MON dynstat_uvel_max             =   2.0569340820698E-03
(PID.TID 0000.0001) %MON dynstat_uvel_min             =  -3.6526292378065E-03
(PID.TID 0000.0001) %MON dynstat_uvel_mean            =  -1.1707230157297E-07
(PID.TID 0000.0001) %MON dynstat_uvel_sd              =   1.4657297355273E-04
(PID.TID 0000.0001) %MON dynstat_uvel_del2            =   3.0496301110005E-07
(PID.TID 0000.0001) %MON dynstat_vvel_max             =   4.3036996677008E-03
(PID.TID 0000.0001) %MON dynstat_vvel_min             =  -2.5410328115338E-03
(PID.TID 0000.0001) %MON dynstat_vvel_mean            =   1.4923451820936E-05
(PID.TID 0000.0001) %MON dynstat_vvel_sd              =   1.5123589806188E-04
(PID.TID 0000.0001) %MON dynstat_vvel_del2            =   4.0112851864718E-07
(PID.TID 0000.0001) %MON dynstat_wvel_max             =   1.4849672729323E-04
(PID.TID 0000.0001) %MON dynstat_wvel_min             =  -1.4059927216159E-04
(PID.TID 0000.0001) %MON dynstat_wvel_mean            =   6.5392079819608E-09
(PID.TID 0000.0001) %MON dynstat_wvel_sd              =   2.9567482835688E-05
(PID.TID 0000.0001) %MON dynstat_wvel_del2            =   1.3798720941569E-07
(PID.TID 0000.0001) %MON dynstat_theta_max            =   1.2000000000000E+00
(PID.TID 0000.0001) %MON dynstat_theta_min            =  -1.0000000000000E+00
(PID.TID 0000.0001) %MON dynstat_theta_mean           =   5.6906068209772E-01
(PID.TID 0000.0001) %MON dynstat_theta_sd             =   8.6856147395348E-01
(PID.TID 0000.0001) %MON dynstat_theta_del2           =   1.0767230159397E-06
(PID.TID 0000.0001) %MON dynstat_salt_max             =   3.4700000000000E+01
(PID.TID 0000.0001) %MON dynstat_salt_min             =   3.4000000000000E+01
(PID.TID 0000.0001) %MON dynstat_salt_mean            =   3.4499238408113E+01
(PID.TID 0000.0001) %MON dynstat_salt_sd              =   2.7635829262869E-01
(PID.TID 0000.0001) %MON dynstat_salt_del2            =   3.6961549482667E-07
(PID.TID 0000.0001) %MON advcfl_uvel_max              =   3.6526292378065E-04
(PID.TID 0000.0001) %MON advcfl_vvel_max              =   4.3036996677008E-04
(PID.TID 0000.0001) %MON advcfl_wvel_max              =   7.4248363646613E-04
(PID.TID 0000.0001) %MON advcfl_W_hf_max              =   7.4248363646613E-04
(PID.TID 0000.0001) %MON pe_b_mean                    =  -8.3166523015139E-01
(PID.TID 0000.0001) %MON ke_max                       =   8.7989520620312E-06
(PID.TID 0000.0001) %MON ke_mean                      =   2.2074665317064E-08
(PID.TID 0000.0001) %MON ke_vol                       =   4.2725303244238E+12
(PID.TID 0000.0001) // =======================================================
(PID.TID 0000.0001) // End MONITOR dynamic field statistics
(PID.TID 0000.0001) // =======================================================
(PID.TID 0000.0001) // =======================================================
(PID.TID 0000.0001) // Begin OBCS MONITOR field statistics
(PID.TID 0000.0001) // =======================================================
(PID.TID 0000.0001) %MON obc_N_vVel_max               =   1.4697706394357E-05
(PID.TID 0000.0001) %MON obc_N_vVel_min               =   1.4697706394357E-05
(PID.TID 0000.0001) %MON obc_N_vVel_mean              =   1.4697706394357E-05
(PID.TID 0000.0001) %MON obc_N_vVel_sd                =  -3.4896682092081E-24
(PID.TID 0000.0001) %MON obc_N_vVel_Int               =   9.7004862202759E+02
(PID.TID 0000.0001) // =======================================================
(PID.TID 0000.0001) // End OBCS MONITOR field statistics
(PID.TID 0000.0001) // =======================================================
 cg2d: Sum(rhs),rhsMax =   4.51989709951824E+00  2.99882961576744E+02
(PID.TID 0000.0001)      cg2d_init_res =   6.63500948069735E-06
(PID.TID 0000.0001)      cg2d_iters(min,last) =      -1      75
(PID.TID 0000.0001)      cg2d_last_res =   9.89105349070721E-12
(PID.TID 0000.0001) // =======================================================
(PID.TID 0000.0001) // Begin MONITOR dynamic field statistics
(PID.TID 0000.0001) // =======================================================
(PID.TID 0000.0001) %MON time_tsnumber                =                   376
(PID.TID 0000.0001) %MON time_secondsf                =   3.7600000000000E+04
(PID.TID 0000.0001) %MON dynstat_eta_max              =   5.7952237051667E+00
(PID.TID 0000.0001) %MON dynstat_eta_min              =  -1.4197157715076E+01
(PID.TID 0000.0001) %MON dynstat_eta_mean             =  -2.5100743115290E+00
(PID.TID 0000.0001) %MON dynstat_eta_sd               =   4.9520427683651E+00
(PID.TID 0000.0001) %MON dynstat_eta_del2             =   2.0714063220862E-01
(PID.TID 0000.0001) %MON dynstat_uvel_max             =   2.0555403435924E-03
(PID.TID 0000.0001) %MON dynstat_uvel_min             =  -3.6577353739161E-03
(PID.TID 0000.0001) %MON dynstat_uvel_mean            =  -1.1714981886322E-07
(PID.TID 0000.0001) %MON dynstat_uvel_sd              =   1.4700324947096E-04
(PID.TID 0000.0001) %MON dynstat_uvel_del2            =   3.0495153472829E-07
(PID.TID 0000.0001) %MON dynstat_vvel_max             =   4.3079957146164E-03
(PID.TID 0000.0001) %MON dynstat_vvel_min             =  -2.5325637554898E-03
(PID.TID 0000.0001) %MON dynstat_vvel_mean            =   1.4926448882264E-05
(PID.TID 0000.0001) %MON dynstat_vvel_sd              =   1.5135487667553E-04
(PID.TID 0000.0001) %MON dynstat_vvel_del2            =   4.0046851820319E-07
(PID.TID 0000.0001) %MON dynstat_wvel_max             =   1.4789766395338E-04
(PID.TID 0000.0001) %MON dynstat_wvel_min             =  -1.4392238749090E-04
(PID.TID 0000.0001) %MON dynstat_wvel_mean            =   6.5523289025554E-09
(PID.TID 0000.0001) %MON dynstat_wvel_sd              =   2.9504544669416E-05
(PID.TID 0000.0001) %MON dynstat_wvel_del2            =   1.3753005695021E-07
(PID.TID 0000.0001) %MON dynstat_theta_max            =   1.2000000000000E+00
(PID.TID 0000.0001) %MON dynstat_theta_min            =  -1.0000000000000E+00
(PID.TID 0000.0001) %MON dynstat_theta_mean           =   5.6906040283842E-01
(PID.TID 0000.0001) %MON dynstat_theta_sd             =   8.6856132891961E-01
(PID.TID 0000.0001) %MON dynstat_theta_del2           =   1.0753990094922E-06
(PID.TID 0000.0001) %MON dynstat_salt_max             =   3.4700000000000E+01
(PID.TID 0000.0001) %MON dynstat_salt_min             =   3.4000000000000E+01
(PID.TID 0000.0001) %MON dynstat_salt_mean            =   3.4499238296402E+01
(PID.TID 0000.0001) %MON dynstat_salt_sd              =   2.7635823973462E-01
(PID.TID 0000.0001) %MON dynstat_salt_del2            =   3.6937226123534E-07
(PID.TID 0000.0001) %MON advcfl_uvel_max              =   3.6577353739161E-04
(PID.TID 0000.0001) %MON advcfl_vvel_max              =   4.3079957146164E-04
(PID.TID 0000.0001) %MON advcfl_wvel_max              =   7.3948831976689E-04
(PID.TID 0000.0001) %MON advcfl_W_hf_max              =   7.3948831976689E-04
(PID.TID 0000.0001) %MON pe_b_mean                    =  -8.3166925214762E-01
(PID.TID 0000.0001) %MON ke_max                       =   8.7907778372770E-06
(PID.TID 0000.0001) %MON ke_mean                      =   2.2154617287501E-08
(PID.TID 0000.0001) %MON ke_vol                       =   4.2725302415038E+12
(PID.TID 0000.0001) // =======================================================
(PID.TID 0000.0001) // End MONITOR dynamic field statistics
(PID.TID 0000.0001) // =======================================================
(PID.TID 0000.0001) // =======================================================
(PID.TID 0000.0001) // Begin OBCS MONITOR field statistics
(PID.TID 0000.0001) // =======================================================
(PID.TID 0000.0001) %MON obc_N_vVel_max               =   1.4699460960023E-05
(PID.TID 0000.0001) %MON obc_N_vVel_min               =   1.4699460960023E-05
(PID.TID 0000.0001) %MON obc_N_vVel_mean              =   1.4699460960023E-05
(PID.TID 0000.0001) %MON obc_N_vVel_sd                =   4.2870641743695E-12
(PID.TID 0000.0001) %MON obc_N_vVel_Int               =   9.7016442336151E+02
(PID.TID 0000.0001) // =======================================================
(PID.TID 0000.0001) // End OBCS MONITOR field statistics
(PID.TID 0000.0001) // =======================================================
 cg2d: Sum(rhs),rhsMax =   4.51992108481893E+00  2.99883037885926E+02
(PID.TID 0000.0001)      cg2d_init_res =   6.62832422933063E-06
(PID.TID 0000.0001)      cg2d_iters(min,last) =      -1      75
(PID.TID 0000.0001)      cg2d_last_res =   9.93518970363254E-12
(PID.TID 0000.0001) // =======================================================
(PID.TID 0000.0001) // Begin MONITOR dynamic field statistics
(PID.TID 0000.0001) // =======================================================
(PID.TID 0000.0001) %MON time_tsnumber                =                   377
(PID.TID 0000.0001) %MON time_secondsf                =   3.7700000000000E+04
(PID.TID 0000.0001) %MON dynstat_eta_max              =   5.7951902711978E+00
(PID.TID 0000.0001) %MON dynstat_eta_min              =  -1.4197173857611E+01
(PID.TID 0000.0001) %MON dynstat_eta_mean             =  -2.5100882702225E+00
(PID.TID 0000.0001) %MON dynstat_eta_sd               =   4.9520473622889E+00
(PID.TID 0000.0001) %MON dynstat_eta_del2             =   2.0714063727831E-01
(PID.TID 0000.0001) %MON dynstat_uvel_max             =   2.0540750149526E-03
(PID.TID 0000.0001) %MON dynstat_uvel_min             =  -3.6627567525502E-03
(PID.TID 0000.0001) %MON dynstat_uvel_mean            =  -1.1722005665689E-07
(PID.TID 0000.0001) %MON dynstat_uvel_sd              =   1.4743338848209E-04
(PID.TID 0000.0001) %MON dynstat_uvel_del2            =   3.0494492080949E-07
(PID.TID 0000.0001) %MON dynstat_vvel_max             =   4.3121909600687E-03
(PID.TID 0000.0001) %MON dynstat_vvel_min             =  -2.5240657641445E-03
(PID.TID 0000.0001) %MON dynstat_vvel_mean            =   1.4930470966136E-05
(PID.TID 0000.0001) %MON dynstat_vvel_sd              =   1.5147409394405E-04
(PID.TID 0000.0001) %MON dynstat_vvel_del2            =   3.9982824478556E-07
(PID.TID 0000.0001) %MON dynstat_wvel_max             =   1.4729767024904E-04
(PID.TID 0000.0001) %MON dynstat_wvel_min             =  -1.4635432436692E-04
(PID.TID 0000.0001) %MON dynstat_wvel_mean            =   6.5659518469248E-09
(PID.TID 0000.0001) %MON dynstat_wvel_sd              =   2.9443187332664E-05
(PID.TID 0000.0001) %MON dynstat_wvel_del2            =   1.3709670520212E-07
(PID.TID 0000.0001) %MON dynstat_theta_max            =   1.2000000000000E+00
(PID.TID 0000.0001) %MON dynstat_theta_min            =  -1.0000000000000E+00
(PID.TID 0000.0001) %MON dynstat_theta_mean           =   5.6906012315502E-01
(PID.TID 0000.0001) %MON dynstat_theta_sd             =   8.6856118376744E-01
(PID.TID 0000.0001) %MON dynstat_theta_del2           =   1.0740776056518E-06
(PID.TID 0000.0001) %MON dynstat_salt_max             =   3.4700000000000E+01
(PID.TID 0000.0001) %MON dynstat_salt_min             =   3.4000000000000E+01
(PID.TID 0000.0001) %MON dynstat_salt_mean            =   3.4499238184528E+01
(PID.TID 0000.0001) %MON dynstat_salt_sd              =   2.7635818678477E-01
(PID.TID 0000.0001) %MON dynstat_salt_del2            =   3.6913067527963E-07
(PID.TID 0000.0001) %MON advcfl_uvel_max              =   3.6627567525502E-04
(PID.TID 0000.0001) %MON advcfl_vvel_max              =   4.3121909600687E-04
(PID.TID 0000.0001) %MON advcfl_wvel_max              =   7.3648835124521E-04
(PID.TID 0000.0001) %MON advcfl_W_hf_max              =   7.3648835124521E-04
(PID.TID 0000.0001) %MON pe_b_mean                    =  -8.3167327418590E-01
(PID.TID 0000.0001) %MON ke_max                       =   8.7823512977899E-06
(PID.TID 0000.0001) %MON ke_mean                      =   2.2234796448767E-08
(PID.TID 0000.0001) %MON ke_vol                       =   4.2725301585895E+12
(PID.TID 0000.0001) // =======================================================
(PID.TID 0000.0001) // End MONITOR dynamic field statistics
(PID.TID 0000.0001) // =======================================================
(PID.TID 0000.0001) // =======================================================
(PID.TID 0000.0001) // Begin OBCS MONITOR field statistics
(PID.TID 0000.0001) // =======================================================
(PID.TID 0000.0001) %MON obc_N_vVel_max               =   1.4702143186851E-05
(PID.TID 0000.0001) %MON obc_N_vVel_min               =   1.4702143186850E-05
(PID.TID 0000.0001) %MON obc_N_vVel_mean              =   1.4702143186850E-05
(PID.TID 0000.0001) %MON obc_N_vVel_sd                =   4.4468850354879E-12
(PID.TID 0000.0001) %MON obc_N_vVel_Int               =   9.7034145033212E+02
(PID.TID 0000.0001) // =======================================================
(PID.TID 0000.0001) // End OBCS MONITOR field statistics
(PID.TID 0000.0001) // =======================================================
 cg2d: Sum(rhs),rhsMax =   4.51994507123636E+00  2.99883114232157E+02
(PID.TID 0000.0001)      cg2d_init_res =   6.62114962097173E-06
(PID.TID 0000.0001)      cg2d_iters(min,last) =      -1      75
(PID.TID 0000.0001)      cg2d_last_res =   9.98606981914532E-12
(PID.TID 0000.0001) // =======================================================
(PID.TID 0000.0001) // Begin MONITOR dynamic field statistics
(PID.TID 0000.0001) // =======================================================
(PID.TID 0000.0001) %MON time_tsnumber                =                   378
(PID.TID 0000.0001) %MON time_secondsf                =   3.7800000000000E+04
(PID.TID 0000.0001) %MON dynstat_eta_max              =   5.7951568346521E+00
(PID.TID 0000.0001) %MON dynstat_eta_min              =  -1.4197189996560E+01
(PID.TID 0000.0001) %MON dynstat_eta_mean             =  -2.5101022298531E+00
(PID.TID 0000.0001) %MON dynstat_eta_sd               =   4.9520519575357E+00
(PID.TID 0000.0001) %MON dynstat_eta_del2             =   2.0714064238884E-01
(PID.TID 0000.0001) %MON dynstat_uvel_max             =   2.0525382698848E-03
(PID.TID 0000.0001) %MON dynstat_uvel_min             =  -3.6676933252140E-03
(PID.TID 0000.0001) %MON dynstat_uvel_mean            =  -1.1728139504410E-07
(PID.TID 0000.0001) %MON dynstat_uvel_sd              =   1.4786337509024E-04
(PID.TID 0000.0001) %MON dynstat_uvel_del2            =   3.0494318605962E-07
(PID.TID 0000.0001) %MON dynstat_vvel_max             =   4.3162854269143E-03
(PID.TID 0000.0001) %MON dynstat_vvel_min             =  -2.5155395855236E-03
(PID.TID 0000.0001) %MON dynstat_vvel_mean            =   1.4935351430763E-05
(PID.TID 0000.0001) %MON dynstat_vvel_sd              =   1.5159378647192E-04
(PID.TID 0000.0001) %MON dynstat_vvel_del2            =   3.9921499437583E-07
(PID.TID 0000.0001) %MON dynstat_wvel_max             =   1.4669677892148E-04
(PID.TID 0000.0001) %MON dynstat_wvel_min             =  -1.4784859457665E-04
(PID.TID 0000.0001) %MON dynstat_wvel_mean            =   6.5796189351300E-09
(PID.TID 0000.0001) %MON dynstat_wvel_sd              =   2.9384065527847E-05
(PID.TID 0000.0001) %MON dynstat_wvel_del2            =   1.3669686942644E-07
(PID.TID 0000.0001) %MON dynstat_theta_max            =   1.2000000000000E+00
(PID.TID 0000.0001) %MON dynstat_theta_min            =  -1.0000000000000E+00
(PID.TID 0000.0001) %MON dynstat_theta_mean           =   5.6905984304217E-01
(PID.TID 0000.0001) %MON dynstat_theta_sd             =   8.6856103848174E-01
(PID.TID 0000.0001) %MON dynstat_theta_del2           =   1.0727525734100E-06
(PID.TID 0000.0001) %MON dynstat_salt_max             =   3.4700000000000E+01
(PID.TID 0000.0001) %MON dynstat_salt_min             =   3.4000000000000E+01
(PID.TID 0000.0001) %MON dynstat_salt_mean            =   3.4499238072487E+01
(PID.TID 0000.0001) %MON dynstat_salt_sd              =   2.7635813377416E-01
(PID.TID 0000.0001) %MON dynstat_salt_del2            =   3.6888896062515E-07
(PID.TID 0000.0001) %MON advcfl_uvel_max              =   3.6676933252140E-04
(PID.TID 0000.0001) %MON advcfl_vvel_max              =   4.3162854269143E-04
(PID.TID 0000.0001) %MON advcfl_wvel_max              =   7.3924297288324E-04
(PID.TID 0000.0001) %MON advcfl_W_hf_max              =   7.3924297288324E-04
(PID.TID 0000.0001) %MON pe_b_mean                    =  -8.3167729646263E-01
(PID.TID 0000.0001) %MON ke_max                       =   8.7736732742712E-06
(PID.TID 0000.0001) %MON ke_mean                      =   2.2315233868747E-08
(PID.TID 0000.0001) %MON ke_vol                       =   4.2725300756749E+12
(PID.TID 0000.0001) // =======================================================
(PID.TID 0000.0001) // End MONITOR dynamic field statistics
(PID.TID 0000.0001) // =======================================================
(PID.TID 0000.0001) // =======================================================
(PID.TID 0000.0001) // Begin OBCS MONITOR field statistics
(PID.TID 0000.0001) // =======================================================
(PID.TID 0000.0001) %MON obc_N_vVel_max               =   1.4705632760121E-05
(PID.TID 0000.0001) %MON obc_N_vVel_min               =   1.4705632760121E-05
(PID.TID 0000.0001) %MON obc_N_vVel_mean              =   1.4705632760121E-05
(PID.TID 0000.0001) %MON obc_N_vVel_sd                =   1.5082263372985E-12
(PID.TID 0000.0001) %MON obc_N_vVel_Int               =   9.7057176216796E+02
(PID.TID 0000.0001) // =======================================================
(PID.TID 0000.0001) // End OBCS MONITOR field statistics
(PID.TID 0000.0001) // =======================================================
 cg2d: Sum(rhs),rhsMax =   4.51996906023728E+00  2.99883190604461E+02
(PID.TID 0000.0001)      cg2d_init_res =   6.61365261513021E-06
(PID.TID 0000.0001)      cg2d_iters(min,last) =      -1      77
(PID.TID 0000.0001)      cg2d_last_res =   8.16841153525994E-12
(PID.TID 0000.0001) // =======================================================
(PID.TID 0000.0001) // Begin MONITOR dynamic field statistics
(PID.TID 0000.0001) // =======================================================
(PID.TID 0000.0001) %MON time_tsnumber                =                   379
(PID.TID 0000.0001) %MON time_secondsf                =   3.7900000000000E+04
(PID.TID 0000.0001) %MON dynstat_eta_max              =   5.7951233953315E+00
(PID.TID 0000.0001) %MON dynstat_eta_min              =  -1.4197206133681E+01
(PID.TID 0000.0001) %MON dynstat_eta_mean             =  -2.5101161911433E+00
(PID.TID 0000.0001) %MON dynstat_eta_sd               =   4.9520565542219E+00
(PID.TID 0000.0001) %MON dynstat_eta_del2             =   2.0714064754136E-01
(PID.TID 0000.0001) %MON dynstat_uvel_max             =   2.0509302911991E-03
(PID.TID 0000.0001) %MON dynstat_uvel_min             =  -3.6725450474121E-03
(PID.TID 0000.0001) %MON dynstat_uvel_mean            =  -1.1733380525546E-07
(PID.TID 0000.0001) %MON dynstat_uvel_sd              =   1.4829319393515E-04
(PID.TID 0000.0001) %MON dynstat_uvel_del2            =   3.0494634689989E-07
(PID.TID 0000.0001) %MON dynstat_vvel_max             =   4.3202791391366E-03
(PID.TID 0000.0001) %MON dynstat_vvel_min             =  -2.5069860205029E-03
(PID.TID 0000.0001) %MON dynstat_vvel_mean            =   1.4940900913216E-05
(PID.TID 0000.0001) %MON dynstat_vvel_sd              =   1.5171407543132E-04
(PID.TID 0000.0001) %MON dynstat_vvel_del2            =   3.9863280559419E-07
(PID.TID 0000.0001) %MON dynstat_wvel_max             =   1.4609502555327E-04
(PID.TID 0000.0001) %MON dynstat_wvel_min             =  -1.5016090260118E-04
(PID.TID 0000.0001) %MON dynstat_wvel_mean            =   6.5928798167395E-09
(PID.TID 0000.0001) %MON dynstat_wvel_sd              =   2.9327564056266E-05
(PID.TID 0000.0001) %MON dynstat_wvel_del2            =   1.3633582298382E-07
(PID.TID 0000.0001) %MON dynstat_theta_max            =   1.2000000000000E+00
(PID.TID 0000.0001) %MON dynstat_theta_min            =  -1.0000000000000E+00
(PID.TID 0000.0001) %MON dynstat_theta_mean           =   5.6905956249464E-01
(PID.TID 0000.0001) %MON dynstat_theta_sd             =   8.6856089304155E-01
(PID.TID 0000.0001) %MON dynstat_theta_del2           =   1.0714209899830E-06
(PID.TID 0000.0001) %MON dynstat_salt_max             =   3.4700000000000E+01
(PID.TID 0000.0001) %MON dynstat_salt_min             =   3.4000000000000E+01
(PID.TID 0000.0001) %MON dynstat_salt_mean            =   3.4499237960279E+01
(PID.TID 0000.0001) %MON dynstat_salt_sd              =   2.7635808069621E-01
(PID.TID 0000.0001) %MON dynstat_salt_del2            =   3.6864627678545E-07
(PID.TID 0000.0001) %MON advcfl_uvel_max              =   3.6725450474121E-04
(PID.TID 0000.0001) %MON advcfl_vvel_max              =   4.3202791391366E-04
(PID.TID 0000.0001) %MON advcfl_wvel_max              =   7.5080451300589E-04
(PID.TID 0000.0001) %MON advcfl_W_hf_max              =   7.5080451300589E-04
(PID.TID 0000.0001) %MON pe_b_mean                    =  -8.3168131912637E-01
(PID.TID 0000.0001) %MON ke_max                       =   8.7647444872459E-06
(PID.TID 0000.0001) %MON ke_mean                      =   2.2395942874784E-08
(PID.TID 0000.0001) %MON ke_vol                       =   4.2725299927547E+12
(PID.TID 0000.0001) // =======================================================
(PID.TID 0000.0001) // End MONITOR dynamic field statistics
(PID.TID 0000.0001) // =======================================================
(PID.TID 0000.0001) // =======================================================
(PID.TID 0000.0001) // Begin OBCS MONITOR field statistics
(PID.TID 0000.0001) // =======================================================
(PID.TID 0000.0001) %MON obc_N_vVel_max               =   1.4709786918292E-05
(PID.TID 0000.0001) %MON obc_N_vVel_min               =   1.4709786918292E-05
(PID.TID 0000.0001) %MON obc_N_vVel_mean              =   1.4709786918292E-05
(PID.TID 0000.0001) %MON obc_N_vVel_sd                =   2.0714727677715E-12
(PID.TID 0000.0001) %MON obc_N_vVel_Int               =   9.7084593660728E+02
(PID.TID 0000.0001) // =======================================================
(PID.TID 0000.0001) // End OBCS MONITOR field statistics
(PID.TID 0000.0001) // =======================================================
 cg2d: Sum(rhs),rhsMax =   4.51999305295487E+00  2.99883266992394E+02
(PID.TID 0000.0001)      cg2d_init_res =   6.60602623147463E-06
(PID.TID 0000.0001)      cg2d_iters(min,last) =      -1      77
(PID.TID 0000.0001)      cg2d_last_res =   8.15056027023041E-12
(PID.TID 0000.0001) // =======================================================
(PID.TID 0000.0001) // Begin MONITOR dynamic field statistics
(PID.TID 0000.0001) // =======================================================
(PID.TID 0000.0001) %MON time_tsnumber                =                   380
(PID.TID 0000.0001) %MON time_secondsf                =   3.8000000000000E+04
(PID.TID 0000.0001) %MON dynstat_eta_max              =   5.7950899533770E+00
(PID.TID 0000.0001) %MON dynstat_eta_min              =  -1.4197223254709E+01
(PID.TID 0000.0001) %MON dynstat_eta_mean             =  -2.5101301546352E+00
(PID.TID 0000.0001) %MON dynstat_eta_sd               =   4.9520611523325E+00
(PID.TID 0000.0001) %MON dynstat_eta_del2             =   2.0714065273322E-01
(PID.TID 0000.0001) %MON dynstat_uvel_max             =   2.0492512419715E-03
(PID.TID 0000.0001) %MON dynstat_uvel_min             =  -3.6773118833104E-03
(PID.TID 0000.0001) %MON dynstat_uvel_mean            =  -1.1737434568313E-07
(PID.TID 0000.0001) %MON dynstat_uvel_sd              =   1.4872282995336E-04
(PID.TID 0000.0001) %MON dynstat_uvel_del2            =   3.0495441967081E-07
(PID.TID 0000.0001) %MON dynstat_vvel_max             =   4.3241720388449E-03
(PID.TID 0000.0001) %MON dynstat_vvel_min             =  -2.4984057932409E-03
(PID.TID 0000.0001) %MON dynstat_vvel_mean            =   1.4946913409314E-05
(PID.TID 0000.0001) %MON dynstat_vvel_sd              =   1.5183494865889E-04
(PID.TID 0000.0001) %MON dynstat_vvel_del2            =   3.9808202077684E-07
(PID.TID 0000.0001) %MON dynstat_wvel_max             =   1.4549243377052E-04
(PID.TID 0000.0001) %MON dynstat_wvel_min             =  -1.5361530044990E-04
(PID.TID 0000.0001) %MON dynstat_wvel_mean            =   6.6053215121442E-09
(PID.TID 0000.0001) %MON dynstat_wvel_sd              =   2.9273754829956E-05
(PID.TID 0000.0001) %MON dynstat_wvel_del2            =   1.3601378261770E-07
(PID.TID 0000.0001) %MON dynstat_theta_max            =   1.2000000000000E+00
(PID.TID 0000.0001) %MON dynstat_theta_min            =  -1.0000000000000E+00
(PID.TID 0000.0001) %MON dynstat_theta_mean           =   5.6905928150678E-01
(PID.TID 0000.0001) %MON dynstat_theta_sd             =   8.6856074744427E-01
(PID.TID 0000.0001) %MON dynstat_theta_del2           =   1.0700837512918E-06
(PID.TID 0000.0001) %MON dynstat_salt_max             =   3.4700000000000E+01
(PID.TID 0000.0001) %MON dynstat_salt_min             =   3.4000000000000E+01
(PID.TID 0000.0001) %MON dynstat_salt_mean            =   3.4499237847902E+01
(PID.TID 0000.0001) %MON dynstat_salt_sd              =   2.7635802754989E-01
(PID.TID 0000.0001) %MON dynstat_salt_del2            =   3.6840292451854E-07
(PID.TID 0000.0001) %MON advcfl_uvel_max              =   3.6773118833104E-04
(PID.TID 0000.0001) %MON advcfl_vvel_max              =   4.3241720388449E-04
(PID.TID 0000.0001) %MON advcfl_wvel_max              =   7.6807650224949E-04
(PID.TID 0000.0001) %MON advcfl_W_hf_max              =   7.6807650224949E-04
(PID.TID 0000.0001) %MON pe_b_mean                    =  -8.3168534227240E-01
(PID.TID 0000.0001) %MON ke_max                       =   8.7555658303073E-06
(PID.TID 0000.0001) %MON ke_mean                      =   2.2476916378077E-08
(PID.TID 0000.0001) %MON ke_vol                       =   4.2725299098246E+12
(PID.TID 0000.0001) // =======================================================
(PID.TID 0000.0001) // End MONITOR dynamic field statistics
(PID.TID 0000.0001) // =======================================================
(PID.TID 0000.0001) // =======================================================
(PID.TID 0000.0001) // Begin OBCS MONITOR field statistics
(PID.TID 0000.0001) // =======================================================
(PID.TID 0000.0001) %MON obc_N_vVel_max               =   1.4714445319104E-05
(PID.TID 0000.0001) %MON obc_N_vVel_min               =   1.4714445319103E-05
(PID.TID 0000.0001) %MON obc_N_vVel_mean              =   1.4714445319103E-05
(PID.TID 0000.0001) %MON obc_N_vVel_sd                =   3.2792297820051E-12
(PID.TID 0000.0001) %MON obc_N_vVel_Int               =   9.7115339106082E+02
(PID.TID 0000.0001) // =======================================================
(PID.TID 0000.0001) // End OBCS MONITOR field statistics
(PID.TID 0000.0001) // =======================================================
 cg2d: Sum(rhs),rhsMax =   4.52001705018019E+00  2.99883343385857E+02
(PID.TID 0000.0001)      cg2d_init_res =   6.59817640381718E-06
(PID.TID 0000.0001)      cg2d_iters(min,last) =      -1      77
(PID.TID 0000.0001)      cg2d_last_res =   8.14456609450812E-12
(PID.TID 0000.0001) // =======================================================
(PID.TID 0000.0001) // Begin MONITOR dynamic field statistics
(PID.TID 0000.0001) // =======================================================
(PID.TID 0000.0001) %MON time_tsnumber                =                   381
(PID.TID 0000.0001) %MON time_secondsf                =   3.8100000000000E+04
(PID.TID 0000.0001) %MON dynstat_eta_max              =   5.7950565090819E+00
(PID.TID 0000.0001) %MON dynstat_eta_min              =  -1.4197246699541E+01
(PID.TID 0000.0001) %MON dynstat_eta_mean             =  -2.5101441206835E+00
(PID.TID 0000.0001) %MON dynstat_eta_sd               =   4.9520657518424E+00
(PID.TID 0000.0001) %MON dynstat_eta_del2             =   2.0714065796519E-01
(PID.TID 0000.0001) %MON dynstat_uvel_max             =   2.0475013164767E-03
(PID.TID 0000.0001) %MON dynstat_uvel_min             =  -3.6819938006530E-03
(PID.TID 0000.0001) %MON dynstat_uvel_mean            =  -1.1740256448066E-07
(PID.TID 0000.0001) %MON dynstat_uvel_sd              =   1.4915226831540E-04
(PID.TID 0000.0001) %MON dynstat_uvel_del2            =   3.0496742126799E-07
(PID.TID 0000.0001) %MON dynstat_vvel_max             =   4.3279641672438E-03
(PID.TID 0000.0001) %MON dynstat_vvel_min             =  -2.4897997534019E-03
(PID.TID 0000.0001) %MON dynstat_vvel_mean            =   1.4953174682042E-05
(PID.TID 0000.0001) %MON dynstat_vvel_sd              =   1.5195625977385E-04
(PID.TID 0000.0001) %MON dynstat_vvel_del2            =   3.9755934478482E-07
(PID.TID 0000.0001) %MON dynstat_wvel_max             =   1.4516221734842E-04
(PID.TID 0000.0001) %MON dynstat_wvel_min             =  -1.5494041982303E-04
(PID.TID 0000.0001) %MON dynstat_wvel_mean            =   6.6165674022328E-09
(PID.TID 0000.0001) %MON dynstat_wvel_sd              =   2.9222396875741E-05
(PID.TID 0000.0001) %MON dynstat_wvel_del2            =   1.3572599077747E-07
(PID.TID 0000.0001) %MON dynstat_theta_max            =   1.2000000000000E+00
(PID.TID 0000.0001) %MON dynstat_theta_min            =  -1.0000000000000E+00
(PID.TID 0000.0001) %MON dynstat_theta_mean           =   5.6905900007324E-01
(PID.TID 0000.0001) %MON dynstat_theta_sd             =   8.6856060162804E-01
(PID.TID 0000.0001) %MON dynstat_theta_del2           =   1.0687464675106E-06
(PID.TID 0000.0001) %MON dynstat_salt_max             =   3.4700000000000E+01
(PID.TID 0000.0001) %MON dynstat_salt_min             =   3.4000000000000E+01
(PID.TID 0000.0001) %MON dynstat_salt_mean            =   3.4499237735354E+01
(PID.TID 0000.0001) %MON dynstat_salt_sd              =   2.7635797431554E-01
(PID.TID 0000.0001) %MON dynstat_salt_del2            =   3.6816059183996E-07
(PID.TID 0000.0001) %MON advcfl_uvel_max              =   3.6819938006530E-04
(PID.TID 0000.0001) %MON advcfl_vvel_max              =   4.3279641672438E-04
(PID.TID 0000.0001) %MON advcfl_wvel_max              =   7.7470209911514E-04
(PID.TID 0000.0001) %MON advcfl_W_hf_max              =   7.7470209911514E-04
(PID.TID 0000.0001) %MON pe_b_mean                    =  -8.3168936594377E-01
(PID.TID 0000.0001) %MON ke_max                       =   8.7461379506649E-06
(PID.TID 0000.0001) %MON ke_mean                      =   2.2558126774441E-08
(PID.TID 0000.0001) %MON ke_vol                       =   4.2725298268815E+12
(PID.TID 0000.0001) // =======================================================
(PID.TID 0000.0001) // End MONITOR dynamic field statistics
(PID.TID 0000.0001) // =======================================================
(PID.TID 0000.0001) // =======================================================
(PID.TID 0000.0001) // Begin OBCS MONITOR field statistics
(PID.TID 0000.0001) // =======================================================
(PID.TID 0000.0001) %MON obc_N_vVel_max               =   1.4719436420635E-05
(PID.TID 0000.0001) %MON obc_N_vVel_min               =   1.4719436420635E-05
(PID.TID 0000.0001) %MON obc_N_vVel_mean              =   1.4719436420635E-05
(PID.TID 0000.0001) %MON obc_N_vVel_sd                =   4.5899080846962E-12
(PID.TID 0000.0001) %MON obc_N_vVel_Int               =   9.7148280376191E+02
(PID.TID 0000.0001) // =======================================================
(PID.TID 0000.0001) // End OBCS MONITOR field statistics
(PID.TID 0000.0001) // =======================================================
 cg2d: Sum(rhs),rhsMax =   4.52004105232221E+00  2.99883419776324E+02
(PID.TID 0000.0001)      cg2d_init_res =   6.59020224161265E-06
(PID.TID 0000.0001)      cg2d_iters(min,last) =      -1      77
(PID.TID 0000.0001)      cg2d_last_res =   8.15114300855198E-12
(PID.TID 0000.0001) // =======================================================
(PID.TID 0000.0001) // Begin MONITOR dynamic field statistics
(PID.TID 0000.0001) // =======================================================
(PID.TID 0000.0001) %MON time_tsnumber                =                   382
(PID.TID 0000.0001) %MON time_secondsf                =   3.8200000000000E+04
(PID.TID 0000.0001) %MON dynstat_eta_max              =   5.7950230626875E+00
(PID.TID 0000.0001) %MON dynstat_eta_min              =  -1.4197270155144E+01
(PID.TID 0000.0001) %MON dynstat_eta_mean             =  -2.5101580894440E+00
(PID.TID 0000.0001) %MON dynstat_eta_sd               =   4.9520703526494E+00
(PID.TID 0000.0001) %MON dynstat_eta_del2             =   2.0714066323745E-01
(PID.TID 0000.0001) %MON dynstat_uvel_max             =   2.0456806988302E-03
(PID.TID 0000.0001) %MON dynstat_uvel_min             =  -3.6865907690496E-03
(PID.TID 0000.0001) %MON dynstat_uvel_mean            =  -1.1741837697307E-07
(PID.TID 0000.0001) %MON dynstat_uvel_sd              =   1.4958149420315E-04
(PID.TID 0000.0001) %MON dynstat_uvel_del2            =   3.0498536642160E-07
(PID.TID 0000.0001) %MON dynstat_vvel_max             =   4.3316555184667E-03
(PID.TID 0000.0001) %MON dynstat_vvel_min             =  -2.4811686926718E-03
(PID.TID 0000.0001) %MON dynstat_vvel_mean            =   1.4959468865411E-05
(PID.TID 0000.0001) %MON dynstat_vvel_sd              =   1.5207774458491E-04
(PID.TID 0000.0001) %MON dynstat_vvel_del2            =   3.9705839258465E-07
(PID.TID 0000.0001) %MON dynstat_wvel_max             =   1.4713318303782E-04
(PID.TID 0000.0001) %MON dynstat_wvel_min             =  -1.5410811442800E-04
(PID.TID 0000.0001) %MON dynstat_wvel_mean            =   6.6262677715495E-09
(PID.TID 0000.0001) %MON dynstat_wvel_sd              =   2.9172976371056E-05
(PID.TID 0000.0001) %MON dynstat_wvel_del2            =   1.3546345196679E-07
(PID.TID 0000.0001) %MON dynstat_theta_max            =   1.2000000000000E+00
(PID.TID 0000.0001) %MON dynstat_theta_min            =  -1.0000000000000E+00
(PID.TID 0000.0001) %MON dynstat_theta_mean           =   5.6905871818821E-01
(PID.TID 0000.0001) %MON dynstat_theta_sd             =   8.6856045558294E-01
(PID.TID 0000.0001) %MON dynstat_theta_del2           =   1.0674170118323E-06
(PID.TID 0000.0001) %MON dynstat_salt_max             =   3.4700000000000E+01
(PID.TID 0000.0001) %MON dynstat_salt_min             =   3.4000000000000E+01
(PID.TID 0000.0001) %MON dynstat_salt_mean            =   3.4499237622632E+01
(PID.TID 0000.0001) %MON dynstat_salt_sd              =   2.7635792098970E-01
(PID.TID 0000.0001) %MON dynstat_salt_del2            =   3.6792159610005E-07
(PID.TID 0000.0001) %MON advcfl_uvel_max              =   3.6865907690496E-04
(PID.TID 0000.0001) %MON advcfl_vvel_max              =   4.3316555184667E-04
(PID.TID 0000.0001) %MON advcfl_wvel_max              =   7.7054057213999E-04
(PID.TID 0000.0001) %MON advcfl_W_hf_max              =   7.7054057213999E-04
(PID.TID 0000.0001) %MON pe_b_mean                    =  -8.3169339012829E-01
(PID.TID 0000.0001) %MON ke_max                       =   8.7364616169853E-06
(PID.TID 0000.0001) %MON ke_mean                      =   2.2639528422360E-08
(PID.TID 0000.0001) %MON ke_vol                       =   4.2725297439231E+12
(PID.TID 0000.0001) // =======================================================
(PID.TID 0000.0001) // End MONITOR dynamic field statistics
(PID.TID 0000.0001) // =======================================================
(PID.TID 0000.0001) // =======================================================
(PID.TID 0000.0001) // Begin OBCS MONITOR field statistics
(PID.TID 0000.0001) // =======================================================
(PID.TID 0000.0001) %MON obc_N_vVel_max               =   1.4724584152870E-05
(PID.TID 0000.0001) %MON obc_N_vVel_min               =   1.4724584152869E-05
(PID.TID 0000.0001) %MON obc_N_vVel_mean              =   1.4724584152870E-05
(PID.TID 0000.0001) %MON obc_N_vVel_sd                =  -1.2200914035157E-23
(PID.TID 0000.0001) %MON obc_N_vVel_Int               =   9.7182255408939E+02
(PID.TID 0000.0001) // =======================================================
(PID.TID 0000.0001) // End OBCS MONITOR field statistics
(PID.TID 0000.0001) // =======================================================
 cg2d: Sum(rhs),rhsMax =   4.52006505941851E+00  2.99883496156480E+02
(PID.TID 0000.0001)      cg2d_init_res =   6.58205667452364E-06
(PID.TID 0000.0001)      cg2d_iters(min,last) =      -1      77
(PID.TID 0000.0001)      cg2d_last_res =   8.17033217405773E-12
(PID.TID 0000.0001) // =======================================================
(PID.TID 0000.0001) // Begin MONITOR dynamic field statistics
(PID.TID 0000.0001) // =======================================================
(PID.TID 0000.0001) %MON time_tsnumber                =                   383
(PID.TID 0000.0001) %MON time_secondsf                =   3.8300000000000E+04
(PID.TID 0000.0001) %MON dynstat_eta_max              =   5.7949896146208E+00
(PID.TID 0000.0001) %MON dynstat_eta_min              =  -1.4197293621159E+01
(PID.TID 0000.0001) %MON dynstat_eta_mean             =  -2.5101720608762E+00
(PID.TID 0000.0001) %MON dynstat_eta_sd               =   4.9520749545773E+00
(PID.TID 0000.0001) %MON dynstat_eta_del2             =   2.0714066854916E-01
(PID.TID 0000.0001) %MON dynstat_uvel_max             =   2.0437895756556E-03
(PID.TID 0000.0001) %MON dynstat_uvel_min             =  -3.6911027650201E-03
(PID.TID 0000.0001) %MON dynstat_uvel_mean            =  -1.1742213142623E-07
(PID.TID 0000.0001) %MON dynstat_uvel_sd              =   1.5001049297697E-04
(PID.TID 0000.0001) %MON dynstat_uvel_del2            =   3.0500826849133E-07
(PID.TID 0000.0001) %MON dynstat_vvel_max             =   4.3352461057440E-03
(PID.TID 0000.0001) %MON dynstat_vvel_min             =  -2.4725133929353E-03
(PID.TID 0000.0001) %MON dynstat_vvel_mean            =   1.4965585436683E-05
(PID.TID 0000.0001) %MON dynstat_vvel_sd              =   1.5219905190552E-04
(PID.TID 0000.0001) %MON dynstat_vvel_del2            =   3.9657063758736E-07
(PID.TID 0000.0001) %MON dynstat_wvel_max             =   1.4665312325321E-04
(PID.TID 0000.0001) %MON dynstat_wvel_min             =  -1.5112155894717E-04
(PID.TID 0000.0001) %MON dynstat_wvel_mean            =   6.6341659092784E-09
(PID.TID 0000.0001) %MON dynstat_wvel_sd              =   2.9124783808050E-05
(PID.TID 0000.0001) %MON dynstat_wvel_del2            =   1.3521423148839E-07
(PID.TID 0000.0001) %MON dynstat_theta_max            =   1.2000000000000E+00
(PID.TID 0000.0001) %MON dynstat_theta_min            =  -1.0000000000000E+00
(PID.TID 0000.0001) %MON dynstat_theta_mean           =   5.6905843584603E-01
(PID.TID 0000.0001) %MON dynstat_theta_sd             =   8.6856030927716E-01
(PID.TID 0000.0001) %MON dynstat_theta_del2           =   1.0661046496882E-06
(PID.TID 0000.0001) %MON dynstat_salt_max             =   3.4700000000000E+01
(PID.TID 0000.0001) %MON dynstat_salt_min             =   3.4000000000000E+01
(PID.TID 0000.0001) %MON dynstat_salt_mean            =   3.4499237509734E+01
(PID.TID 0000.0001) %MON dynstat_salt_sd              =   2.7635786756221E-01
(PID.TID 0000.0001) %MON dynstat_salt_del2            =   3.6768858549393E-07
(PID.TID 0000.0001) %MON advcfl_uvel_max              =   3.6911027650201E-04
(PID.TID 0000.0001) %MON advcfl_vvel_max              =   4.3352461057440E-04
(PID.TID 0000.0001) %MON advcfl_wvel_max              =   7.5560779473585E-04
(PID.TID 0000.0001) %MON advcfl_W_hf_max              =   7.5560779473585E-04
(PID.TID 0000.0001) %MON pe_b_mean                    =  -8.3169741476185E-01
(PID.TID 0000.0001) %MON ke_max                       =   8.7265376539380E-06
(PID.TID 0000.0001) %MON ke_mean                      =   2.2721062389036E-08
(PID.TID 0000.0001) %MON ke_vol                       =   4.2725296609487E+12
(PID.TID 0000.0001) // =======================================================
(PID.TID 0000.0001) // End MONITOR dynamic field statistics
(PID.TID 0000.0001) // =======================================================
(PID.TID 0000.0001) // =======================================================
(PID.TID 0000.0001) // Begin OBCS MONITOR field statistics
(PID.TID 0000.0001) // =======================================================
(PID.TID 0000.0001) %MON obc_N_vVel_max               =   1.4729710166387E-05
(PID.TID 0000.0001) %MON obc_N_vVel_min               =   1.4729710166387E-05
(PID.TID 0000.0001) %MON obc_N_vVel_mean              =   1.4729710166387E-05
(PID.TID 0000.0001) %MON obc_N_vVel_sd                =  -8.1167097606766E-24
(PID.TID 0000.0001) %MON obc_N_vVel_Int               =   9.7216087098152E+02
(PID.TID 0000.0001) // =======================================================
(PID.TID 0000.0001) // End OBCS MONITOR field statistics
(PID.TID 0000.0001) // =======================================================
 cg2d: Sum(rhs),rhsMax =   4.52008907114319E+00  2.99883572520657E+02
(PID.TID 0000.0001)      cg2d_init_res =   6.57366173890744E-06
(PID.TID 0000.0001)      cg2d_iters(min,last) =      -1      77
(PID.TID 0000.0001)      cg2d_last_res =   8.19930535958851E-12
(PID.TID 0000.0001) // =======================================================
(PID.TID 0000.0001) // Begin MONITOR dynamic field statistics
(PID.TID 0000.0001) // =======================================================
(PID.TID 0000.0001) %MON time_tsnumber                =                   384
(PID.TID 0000.0001) %MON time_secondsf                =   3.8400000000000E+04
(PID.TID 0000.0001) %MON dynstat_eta_max              =   5.7949561657213E+00
(PID.TID 0000.0001) %MON dynstat_eta_min              =  -1.4197317096847E+01
(PID.TID 0000.0001) %MON dynstat_eta_mean             =  -2.5101860347518E+00
(PID.TID 0000.0001) %MON dynstat_eta_sd               =   4.9520795574060E+00
(PID.TID 0000.0001) %MON dynstat_eta_del2             =   2.0714067390026E-01
(PID.TID 0000.0001) %MON dynstat_uvel_max             =   2.0418281369483E-03
(PID.TID 0000.0001) %MON dynstat_uvel_min             =  -3.6955297707318E-03
(PID.TID 0000.0001) %MON dynstat_uvel_mean            =  -1.1741454133786E-07
(PID.TID 0000.0001) %MON dynstat_uvel_sd              =   1.5043925017677E-04
(PID.TID 0000.0001) %MON dynstat_uvel_del2            =   3.0503613912068E-07
(PID.TID 0000.0001) %MON dynstat_vvel_max             =   4.3387359699611E-03
(PID.TID 0000.0001) %MON dynstat_vvel_min             =  -2.4638346166510E-03
(PID.TID 0000.0001) %MON dynstat_vvel_mean            =   1.4971326241989E-05
(PID.TID 0000.0001) %MON dynstat_vvel_sd              =   1.5231978348285E-04
(PID.TID 0000.0001) %MON dynstat_vvel_del2            =   3.9608661583428E-07
(PID.TID 0000.0001) %MON dynstat_wvel_max             =   1.4373986854446E-04
(PID.TID 0000.0001) %MON dynstat_wvel_min             =  -1.4601565876063E-04
(PID.TID 0000.0001) %MON dynstat_wvel_mean            =   6.6400599815595E-09
(PID.TID 0000.0001) %MON dynstat_wvel_sd              =   2.9077013758097E-05
(PID.TID 0000.0001) %MON dynstat_wvel_del2            =   1.3496509965605E-07
(PID.TID 0000.0001) %MON dynstat_theta_max            =   1.2000000000000E+00
(PID.TID 0000.0001) %MON dynstat_theta_min            =  -1.0000000000000E+00
(PID.TID 0000.0001) %MON dynstat_theta_mean           =   5.6905815304119E-01
(PID.TID 0000.0001) %MON dynstat_theta_sd             =   8.6856016270997E-01
(PID.TID 0000.0001) %MON dynstat_theta_del2           =   1.0648181789248E-06
(PID.TID 0000.0001) %MON dynstat_salt_max             =   3.4700000000000E+01
(PID.TID 0000.0001) %MON dynstat_salt_min             =   3.4000000000000E+01
(PID.TID 0000.0001) %MON dynstat_salt_mean            =   3.4499237396660E+01
(PID.TID 0000.0001) %MON dynstat_salt_sd              =   2.7635781403297E-01
(PID.TID 0000.0001) %MON dynstat_salt_del2            =   3.6746428773573E-07
(PID.TID 0000.0001) %MON advcfl_uvel_max              =   3.6955297707318E-04
(PID.TID 0000.0001) %MON advcfl_vvel_max              =   4.3387359699611E-04
(PID.TID 0000.0001) %MON advcfl_wvel_max              =   7.3007829380315E-04
(PID.TID 0000.0001) %MON advcfl_W_hf_max              =   7.3007829380315E-04
(PID.TID 0000.0001) %MON pe_b_mean                    =  -8.3170143973328E-01
(PID.TID 0000.0001) %MON ke_max                       =   8.7163669584818E-06
(PID.TID 0000.0001) %MON ke_mean                      =   2.2802662584438E-08
(PID.TID 0000.0001) %MON ke_vol                       =   4.2725295779584E+12
(PID.TID 0000.0001) // =======================================================
(PID.TID 0000.0001) // End MONITOR dynamic field statistics
(PID.TID 0000.0001) // =======================================================
(PID.TID 0000.0001) // =======================================================
(PID.TID 0000.0001) // Begin OBCS MONITOR field statistics
(PID.TID 0000.0001) // =======================================================
(PID.TID 0000.0001) %MON obc_N_vVel_max               =   1.4734643836437E-05
(PID.TID 0000.0001) %MON obc_N_vVel_min               =   1.4734643836437E-05
(PID.TID 0000.0001) %MON obc_N_vVel_mean              =   1.4734643836437E-05
(PID.TID 0000.0001) %MON obc_N_vVel_sd                =   4.4089391462115E-12
(PID.TID 0000.0001) %MON obc_N_vVel_Int               =   9.7248649320483E+02
(PID.TID 0000.0001) // =======================================================
(PID.TID 0000.0001) // End OBCS MONITOR field statistics
(PID.TID 0000.0001) // =======================================================
 cg2d: Sum(rhs),rhsMax =   4.52011308683425E+00  2.99883648865001E+02
(PID.TID 0000.0001)      cg2d_init_res =   6.56493905277274E-06
(PID.TID 0000.0001)      cg2d_iters(min,last) =      -1      77
(PID.TID 0000.0001)      cg2d_last_res =   8.23267534045058E-12
(PID.TID 0000.0001) // =======================================================
(PID.TID 0000.0001) // Begin MONITOR dynamic field statistics
(PID.TID 0000.0001) // =======================================================
(PID.TID 0000.0001) %MON time_tsnumber                =                   385
(PID.TID 0000.0001) %MON time_secondsf                =   3.8500000000000E+04
(PID.TID 0000.0001) %MON dynstat_eta_max              =   5.7949227154826E+00
(PID.TID 0000.0001) %MON dynstat_eta_min              =  -1.4197340581190E+01
(PID.TID 0000.0001) %MON dynstat_eta_mean             =  -2.5102000106709E+00
(PID.TID 0000.0001) %MON dynstat_eta_sd               =   4.9520841608763E+00
(PID.TID 0000.0001) %MON dynstat_eta_del2             =   2.0714067929075E-01
(PID.TID 0000.0001) %MON dynstat_uvel_max             =   2.0397965762523E-03
(PID.TID 0000.0001) %MON dynstat_uvel_min             =  -3.6998717729303E-03
(PID.TID 0000.0001) %MON dynstat_uvel_mean            =  -1.1739659328606E-07
(PID.TID 0000.0001) %MON dynstat_uvel_sd              =   1.5086775137445E-04
(PID.TID 0000.0001) %MON dynstat_uvel_del2            =   3.0506898687819E-07
(PID.TID 0000.0001) %MON dynstat_vvel_max             =   4.3421251821760E-03
(PID.TID 0000.0001) %MON dynstat_vvel_min             =  -2.4551330991658E-03
(PID.TID 0000.0001) %MON dynstat_vvel_mean            =   1.4976511652768E-05
(PID.TID 0000.0001) %MON dynstat_vvel_sd              =   1.5243953766581E-04
(PID.TID 0000.0001) %MON dynstat_vvel_del2            =   3.9559722406776E-07
(PID.TID 0000.0001) %MON dynstat_wvel_max             =   1.4246813850273E-04
(PID.TID 0000.0001) %MON dynstat_wvel_min             =  -1.3885698210014E-04
(PID.TID 0000.0001) %MON dynstat_wvel_mean            =   6.6438187272659E-09
(PID.TID 0000.0001) %MON dynstat_wvel_sd              =   2.9028875142596E-05
(PID.TID 0000.0001) %MON dynstat_wvel_del2            =   1.3470330418349E-07
(PID.TID 0000.0001) %MON dynstat_theta_max            =   1.2000000000000E+00
(PID.TID 0000.0001) %MON dynstat_theta_min            =  -1.0000000000000E+00
(PID.TID 0000.0001) %MON dynstat_theta_mean           =   5.6905786976876E-01
(PID.TID 0000.0001) %MON dynstat_theta_sd             =   8.6856001593353E-01
(PID.TID 0000.0001) %MON dynstat_theta_del2           =   1.0635667903001E-06
(PID.TID 0000.0001) %MON dynstat_salt_max             =   3.4700000000000E+01
(PID.TID 0000.0001) %MON dynstat_salt_min             =   3.4000000000000E+01
(PID.TID 0000.0001) %MON dynstat_salt_mean            =   3.4499237283407E+01
(PID.TID 0000.0001) %MON dynstat_salt_sd              =   2.7635776041822E-01
(PID.TID 0000.0001) %MON dynstat_salt_del2            =   3.6725133551811E-07
(PID.TID 0000.0001) %MON advcfl_uvel_max              =   3.6998717729303E-04
(PID.TID 0000.0001) %MON advcfl_vvel_max              =   4.3421251821760E-04
(PID.TID 0000.0001) %MON advcfl_wvel_max              =   7.1234069251367E-04
(PID.TID 0000.0001) %MON advcfl_W_hf_max              =   7.1234069251367E-04
(PID.TID 0000.0001) %MON pe_b_mean                    =  -8.3170546489020E-01
(PID.TID 0000.0001) %MON ke_max                       =   8.7059504848201E-06
(PID.TID 0000.0001) %MON ke_mean                      =   2.2884262461506E-08
(PID.TID 0000.0001) %MON ke_vol                       =   4.2725294949536E+12
(PID.TID 0000.0001) // =======================================================
(PID.TID 0000.0001) // End MONITOR dynamic field statistics
(PID.TID 0000.0001) // =======================================================
(PID.TID 0000.0001) // =======================================================
(PID.TID 0000.0001) // Begin OBCS MONITOR field statistics
(PID.TID 0000.0001) // =======================================================
(PID.TID 0000.0001) %MON obc_N_vVel_max               =   1.4739226271718E-05
(PID.TID 0000.0001) %MON obc_N_vVel_min               =   1.4739226271718E-05
(PID.TID 0000.0001) %MON obc_N_vVel_mean              =   1.4739226271718E-05
(PID.TID 0000.0001) %MON obc_N_vVel_sd                =   4.8099072503888E-12
(PID.TID 0000.0001) %MON obc_N_vVel_Int               =   9.7278893393337E+02
(PID.TID 0000.0001) // =======================================================
(PID.TID 0000.0001) // End OBCS MONITOR field statistics
(PID.TID 0000.0001) // =======================================================
 cg2d: Sum(rhs),rhsMax =   4.52013710552480E+00  2.99883725187559E+02
(PID.TID 0000.0001)      cg2d_init_res =   6.55584587174319E-06
(PID.TID 0000.0001)      cg2d_iters(min,last) =      -1      77
(PID.TID 0000.0001)      cg2d_last_res =   8.26571775937976E-12
(PID.TID 0000.0001) // =======================================================
(PID.TID 0000.0001) // Begin MONITOR dynamic field statistics
(PID.TID 0000.0001) // =======================================================
(PID.TID 0000.0001) %MON time_tsnumber                =                   386
(PID.TID 0000.0001) %MON time_secondsf                =   3.8600000000000E+04
(PID.TID 0000.0001) %MON dynstat_eta_max              =   5.7948892655200E+00
(PID.TID 0000.0001) %MON dynstat_eta_min              =  -1.4197364072947E+01
(PID.TID 0000.0001) %MON dynstat_eta_mean             =  -2.5102139880802E+00
(PID.TID 0000.0001) %MON dynstat_eta_sd               =   4.9520887646933E+00
(PID.TID 0000.0001) %MON dynstat_eta_del2             =   2.0714068472064E-01
(PID.TID 0000.0001) %MON dynstat_uvel_max             =   2.0376950901296E-03
(PID.TID 0000.0001) %MON dynstat_uvel_min             =  -3.7041287630075E-03
(PID.TID 0000.0001) %MON dynstat_uvel_mean            =  -1.1736953998715E-07
(PID.TID 0000.0001) %MON dynstat_uvel_sd              =   1.5129598224083E-04
(PID.TID 0000.0001) %MON dynstat_uvel_del2            =   3.0510681841285E-07
(PID.TID 0000.0001) %MON dynstat_vvel_max             =   4.3454138504391E-03
(PID.TID 0000.0001) %MON dynstat_vvel_min             =  -2.4464095414398E-03
(PID.TID 0000.0001) %MON dynstat_vvel_mean            =   1.4980985924851E-05
(PID.TID 0000.0001) %MON dynstat_vvel_sd              =   1.5255795115560E-04
(PID.TID 0000.0001) %MON dynstat_vvel_del2            =   3.9509494534037E-07
(PID.TID 0000.0001) %MON dynstat_wvel_max             =   1.4186122734234E-04
(PID.TID 0000.0001) %MON dynstat_wvel_min             =  -1.3673012780295E-04
(PID.TID 0000.0001) %MON dynstat_wvel_mean            =   6.6453864476599E-09
(PID.TID 0000.0001) %MON dynstat_wvel_sd              =   2.8979696624628E-05
(PID.TID 0000.0001) %MON dynstat_wvel_del2            =   1.3441822877419E-07
(PID.TID 0000.0001) %MON dynstat_theta_max            =   1.2000000000000E+00
(PID.TID 0000.0001) %MON dynstat_theta_min            =  -1.0000000000000E+00
(PID.TID 0000.0001) %MON dynstat_theta_mean           =   5.6905758602439E-01
(PID.TID 0000.0001) %MON dynstat_theta_sd             =   8.6855986899918E-01
(PID.TID 0000.0001) %MON dynstat_theta_del2           =   1.0623583013158E-06
(PID.TID 0000.0001) %MON dynstat_salt_max             =   3.4700000000000E+01
(PID.TID 0000.0001) %MON dynstat_salt_min             =   3.4000000000000E+01
(PID.TID 0000.0001) %MON dynstat_salt_mean            =   3.4499237169973E+01
(PID.TID 0000.0001) %MON dynstat_salt_sd              =   2.7635770673444E-01
(PID.TID 0000.0001) %MON dynstat_salt_del2            =   3.6705210720666E-07
(PID.TID 0000.0001) %MON advcfl_uvel_max              =   3.7041287630075E-04
(PID.TID 0000.0001) %MON advcfl_vvel_max              =   4.3454138504391E-04
(PID.TID 0000.0001) %MON advcfl_wvel_max              =   7.0930613671171E-04
(PID.TID 0000.0001) %MON advcfl_W_hf_max              =   7.0930613671171E-04
(PID.TID 0000.0001) %MON pe_b_mean                    =  -8.3170949004388E-01
(PID.TID 0000.0001) %MON ke_max                       =   8.6952892863504E-06
(PID.TID 0000.0001) %MON ke_mean                      =   2.2965801476744E-08
(PID.TID 0000.0001) %MON ke_vol                       =   4.2725294119366E+12
(PID.TID 0000.0001) // =======================================================
(PID.TID 0000.0001) // End MONITOR dynamic field statistics
(PID.TID 0000.0001) // =======================================================
(PID.TID 0000.0001) // =======================================================
(PID.TID 0000.0001) // Begin OBCS MONITOR field statistics
(PID.TID 0000.0001) // =======================================================
(PID.TID 0000.0001) %MON obc_N_vVel_max               =   1.4743315063532E-05
(PID.TID 0000.0001) %MON obc_N_vVel_min               =   1.4743315063531E-05
(PID.TID 0000.0001) %MON obc_N_vVel_mean              =   1.4743315063532E-05
(PID.TID 0000.0001) %MON obc_N_vVel_sd                =  -1.7319094075329E-23
(PID.TID 0000.0001) %MON obc_N_vVel_Int               =   9.7305879419309E+02
(PID.TID 0000.0001) // =======================================================
(PID.TID 0000.0001) // End OBCS MONITOR field statistics
(PID.TID 0000.0001) // =======================================================
 cg2d: Sum(rhs),rhsMax =   4.52016112596154E+00  2.99883801488331E+02
(PID.TID 0000.0001)      cg2d_init_res =   6.54636723017565E-06
(PID.TID 0000.0001)      cg2d_iters(min,last) =      -1      77
(PID.TID 0000.0001)      cg2d_last_res =   8.29440369612614E-12
(PID.TID 0000.0001) // =======================================================
(PID.TID 0000.0001) // Begin MONITOR dynamic field statistics
(PID.TID 0000.0001) // =======================================================
(PID.TID 0000.0001) %MON time_tsnumber                =                   387
(PID.TID 0000.0001) %MON time_secondsf                =   3.8700000000000E+04
(PID.TID 0000.0001) %MON dynstat_eta_max              =   5.7948558165817E+00
(PID.TID 0000.0001) %MON dynstat_eta_min              =  -1.4197387570719E+01
(PID.TID 0000.0001) %MON dynstat_eta_mean             =  -2.5102279662836E+00
(PID.TID 0000.0001) %MON dynstat_eta_sd               =   4.9520933685344E+00
(PID.TID 0000.0001) %MON dynstat_eta_del2             =   2.0714069018937E-01
(PID.TID 0000.0001) %MON dynstat_uvel_max             =   2.0355238779842E-03
(PID.TID 0000.0001) %MON dynstat_uvel_min             =  -3.7083007369370E-03
(PID.TID 0000.0001) %MON dynstat_uvel_mean            =  -1.1733487871453E-07
(PID.TID 0000.0001) %MON dynstat_uvel_sd              =   1.5172392851009E-04
(PID.TID 0000.0001) %MON dynstat_uvel_del2            =   3.0514963873283E-07
(PID.TID 0000.0001) %MON dynstat_vvel_max             =   4.3486021268313E-03
(PID.TID 0000.0001) %MON dynstat_vvel_min             =  -2.4376646042015E-03
(PID.TID 0000.0001) %MON dynstat_vvel_mean            =   1.4984621675449E-05
(PID.TID 0000.0001) %MON dynstat_vvel_sd              =   1.5267473309979E-04
(PID.TID 0000.0001) %MON dynstat_vvel_del2            =   3.9457484053982E-07
(PID.TID 0000.0001) %MON dynstat_wvel_max             =   1.4125370183165E-04
(PID.TID 0000.0001) %MON dynstat_wvel_min             =  -1.4023868775343E-04
(PID.TID 0000.0001) %MON dynstat_wvel_mean            =   6.6447805064010E-09
(PID.TID 0000.0001) %MON dynstat_wvel_sd              =   2.8929014068384E-05
(PID.TID 0000.0001) %MON dynstat_wvel_del2            =   1.3410273155139E-07
(PID.TID 0000.0001) %MON dynstat_theta_max            =   1.2000000000000E+00
(PID.TID 0000.0001) %MON dynstat_theta_min            =  -1.0000000000000E+00
(PID.TID 0000.0001) %MON dynstat_theta_mean           =   5.6905730180282E-01
(PID.TID 0000.0001) %MON dynstat_theta_sd             =   8.6855972196444E-01
(PID.TID 0000.0001) %MON dynstat_theta_del2           =   1.0611975999365E-06
(PID.TID 0000.0001) %MON dynstat_salt_max             =   3.4700000000000E+01
(PID.TID 0000.0001) %MON dynstat_salt_min             =   3.4000000000000E+01
(PID.TID 0000.0001) %MON dynstat_salt_mean            =   3.4499237056358E+01
(PID.TID 0000.0001) %MON dynstat_salt_sd              =   2.7635765299991E-01
(PID.TID 0000.0001) %MON dynstat_salt_del2            =   3.6686779512994E-07
(PID.TID 0000.0001) %MON advcfl_uvel_max              =   3.7083007369370E-04
(PID.TID 0000.0001) %MON advcfl_vvel_max              =   4.3486021268313E-04
(PID.TID 0000.0001) %MON advcfl_wvel_max              =   7.0626850915823E-04
(PID.TID 0000.0001) %MON advcfl_W_hf_max              =   7.0626850915823E-04
(PID.TID 0000.0001) %MON pe_b_mean                    =  -8.3171351497243E-01
(PID.TID 0000.0001) %MON ke_max                       =   8.6843845396093E-06
(PID.TID 0000.0001) %MON ke_mean                      =   2.3047230385883E-08
(PID.TID 0000.0001) %MON ke_vol                       =   4.2725293289108E+12
(PID.TID 0000.0001) // =======================================================
(PID.TID 0000.0001) // End MONITOR dynamic field statistics
(PID.TID 0000.0001) // =======================================================
(PID.TID 0000.0001) // =======================================================
(PID.TID 0000.0001) // Begin OBCS MONITOR field statistics
(PID.TID 0000.0001) // =======================================================
(PID.TID 0000.0001) %MON obc_N_vVel_max               =   1.4746788721377E-05
(PID.TID 0000.0001) %MON obc_N_vVel_min               =   1.4746788721377E-05
(PID.TID 0000.0001) %MON obc_N_vVel_mean              =   1.4746788721377E-05
(PID.TID 0000.0001) %MON obc_N_vVel_sd                =   3.3571320864743E-12
(PID.TID 0000.0001) %MON obc_N_vVel_Int               =   9.7328805561086E+02
(PID.TID 0000.0001) // =======================================================
(PID.TID 0000.0001) // End OBCS MONITOR field statistics
(PID.TID 0000.0001) // =======================================================
 cg2d: Sum(rhs),rhsMax =   4.52018514666214E+00  2.99883877769191E+02
(PID.TID 0000.0001)      cg2d_init_res =   6.53654772425235E-06
(PID.TID 0000.0001)      cg2d_iters(min,last) =      -1      75
(PID.TID 0000.0001)      cg2d_last_res =   9.93676171879000E-12
(PID.TID 0000.0001) // =======================================================
(PID.TID 0000.0001) // Begin MONITOR dynamic field statistics
(PID.TID 0000.0001) // =======================================================
(PID.TID 0000.0001) %MON time_tsnumber                =                   388
(PID.TID 0000.0001) %MON time_secondsf                =   3.8800000000000E+04
(PID.TID 0000.0001) %MON dynstat_eta_max              =   5.7948223698432E+00
(PID.TID 0000.0001) %MON dynstat_eta_min              =  -1.4197411073142E+01
(PID.TID 0000.0001) %MON dynstat_eta_mean             =  -2.5102419444736E+00
(PID.TID 0000.0001) %MON dynstat_eta_sd               =   4.9520979720529E+00
(PID.TID 0000.0001) %MON dynstat_eta_del2             =   2.0714069569566E-01
(PID.TID 0000.0001) %MON dynstat_uvel_max             =   2.0332831364444E-03
(PID.TID 0000.0001) %MON dynstat_uvel_min             =  -3.7123876950895E-03
(PID.TID 0000.0001) %MON dynstat_uvel_mean            =  -1.1729304272634E-07
(PID.TID 0000.0001) %MON dynstat_uvel_sd              =   1.5215157589468E-04
(PID.TID 0000.0001) %MON dynstat_uvel_del2            =   3.0519744859788E-07
(PID.TID 0000.0001) %MON dynstat_vvel_max             =   4.3516902071046E-03
(PID.TID 0000.0001) %MON dynstat_vvel_min             =  -2.4288988824059E-03
(PID.TID 0000.0001) %MON dynstat_vvel_mean            =   1.4987323246201E-05
(PID.TID 0000.0001) %MON dynstat_vvel_sd              =   1.5278968729676E-04
(PID.TID 0000.0001) %MON dynstat_vvel_del2            =   3.9403516744644E-07
(PID.TID 0000.0001) %MON dynstat_wvel_max             =   1.4139275936296E-04
(PID.TID 0000.0001) %MON dynstat_wvel_min             =  -1.4290544909192E-04
(PID.TID 0000.0001) %MON dynstat_wvel_mean            =   6.6421043486603E-09
(PID.TID 0000.0001) %MON dynstat_wvel_sd              =   2.8876628852932E-05
(PID.TID 0000.0001) %MON dynstat_wvel_del2            =   1.3375399712421E-07
(PID.TID 0000.0001) %MON dynstat_theta_max            =   1.2000000000000E+00
(PID.TID 0000.0001) %MON dynstat_theta_min            =  -1.0000000000000E+00
(PID.TID 0000.0001) %MON dynstat_theta_mean           =   5.6905701709845E-01
(PID.TID 0000.0001) %MON dynstat_theta_sd             =   8.6855957482510E-01
(PID.TID 0000.0001) %MON dynstat_theta_del2           =   1.0600859704047E-06
(PID.TID 0000.0001) %MON dynstat_salt_max             =   3.4700000000000E+01
(PID.TID 0000.0001) %MON dynstat_salt_min             =   3.4000000000000E+01
(PID.TID 0000.0001) %MON dynstat_salt_mean            =   3.4499236942558E+01
(PID.TID 0000.0001) %MON dynstat_salt_sd              =   2.7635759921316E-01
(PID.TID 0000.0001) %MON dynstat_salt_del2            =   3.6669882384682E-07
(PID.TID 0000.0001) %MON advcfl_uvel_max              =   3.7123876950895E-04
(PID.TID 0000.0001) %MON advcfl_vvel_max              =   4.3516902071046E-04
(PID.TID 0000.0001) %MON advcfl_wvel_max              =   7.1452724545959E-04
(PID.TID 0000.0001) %MON advcfl_W_hf_max              =   7.1452724545959E-04
(PID.TID 0000.0001) %MON pe_b_mean                    =  -8.3171753943220E-01
(PID.TID 0000.0001) %MON ke_max                       =   8.6732375887664E-06
(PID.TID 0000.0001) %MON ke_mean                      =   2.3128514721955E-08
(PID.TID 0000.0001) %MON ke_vol                       =   4.2725292458803E+12
(PID.TID 0000.0001) // =======================================================
(PID.TID 0000.0001) // End MONITOR dynamic field statistics
(PID.TID 0000.0001) // =======================================================
(PID.TID 0000.0001) // =======================================================
(PID.TID 0000.0001) // Begin OBCS MONITOR field statistics
(PID.TID 0000.0001) // =======================================================
(PID.TID 0000.0001) %MON obc_N_vVel_max               =   1.4749550005033E-05
(PID.TID 0000.0001) %MON obc_N_vVel_min               =   1.4749550005032E-05
(PID.TID 0000.0001) %MON obc_N_vVel_mean              =   1.4749550005033E-05
(PID.TID 0000.0001) %MON obc_N_vVel_sd                =  -1.2666203129718E-23
(PID.TID 0000.0001) %MON obc_N_vVel_Int               =   9.7347030033215E+02
(PID.TID 0000.0001) // =======================================================
(PID.TID 0000.0001) // End OBCS MONITOR field statistics
(PID.TID 0000.0001) // =======================================================
 cg2d: Sum(rhs),rhsMax =   4.52020916598748E+00  2.99883954033541E+02
(PID.TID 0000.0001)      cg2d_init_res =   6.52647167436891E-06
(PID.TID 0000.0001)      cg2d_iters(min,last) =      -1      75
(PID.TID 0000.0001)      cg2d_last_res =   9.88848275457166E-12
(PID.TID 0000.0001) // =======================================================
(PID.TID 0000.0001) // Begin MONITOR dynamic field statistics
(PID.TID 0000.0001) // =======================================================
(PID.TID 0000.0001) %MON time_tsnumber                =                   389
(PID.TID 0000.0001) %MON time_secondsf                =   3.8900000000000E+04
(PID.TID 0000.0001) %MON dynstat_eta_max              =   5.7947889253821E+00
(PID.TID 0000.0001) %MON dynstat_eta_min              =  -1.4197434578327E+01
(PID.TID 0000.0001) %MON dynstat_eta_mean             =  -2.5102559217685E+00
(PID.TID 0000.0001) %MON dynstat_eta_sd               =   4.9521025749458E+00
(PID.TID 0000.0001) %MON dynstat_eta_del2             =   2.0714070124193E-01
(PID.TID 0000.0001) %MON dynstat_uvel_max             =   2.0309730857638E-03
(PID.TID 0000.0001) %MON dynstat_uvel_min             =  -3.7163896416452E-03
(PID.TID 0000.0001) %MON dynstat_uvel_mean            =  -1.1724787199369E-07
(PID.TID 0000.0001) %MON dynstat_uvel_sd              =   1.5257890992997E-04
(PID.TID 0000.0001) %MON dynstat_uvel_del2            =   3.0525024501482E-07
(PID.TID 0000.0001) %MON dynstat_vvel_max             =   4.3546783514063E-03
(PID.TID 0000.0001) %MON dynstat_vvel_min             =  -2.4201129980179E-03
(PID.TID 0000.0001) %MON dynstat_vvel_mean            =   1.4989029525760E-05
(PID.TID 0000.0001) %MON dynstat_vvel_sd              =   1.5290272009811E-04
(PID.TID 0000.0001) %MON dynstat_vvel_del2            =   3.9347757413151E-07
(PID.TID 0000.0001) %MON dynstat_wvel_max             =   1.4181092151815E-04
(PID.TID 0000.0001) %MON dynstat_wvel_min             =  -1.4468412820078E-04
(PID.TID 0000.0001) %MON dynstat_wvel_mean            =   6.6374612421183E-09
(PID.TID 0000.0001) %MON dynstat_wvel_sd              =   2.8822629424760E-05
(PID.TID 0000.0001) %MON dynstat_wvel_del2            =   1.3337381038963E-07
(PID.TID 0000.0001) %MON dynstat_theta_max            =   1.2000000000000E+00
(PID.TID 0000.0001) %MON dynstat_theta_min            =  -1.0000000000000E+00
(PID.TID 0000.0001) %MON dynstat_theta_mean           =   5.6905673190602E-01
(PID.TID 0000.0001) %MON dynstat_theta_sd             =   8.6855942756316E-01
(PID.TID 0000.0001) %MON dynstat_theta_del2           =   1.0590214534535E-06
(PID.TID 0000.0001) %MON dynstat_salt_max             =   3.4700000000000E+01
(PID.TID 0000.0001) %MON dynstat_salt_min             =   3.4000000000000E+01
(PID.TID 0000.0001) %MON dynstat_salt_mean            =   3.4499236828573E+01
(PID.TID 0000.0001) %MON dynstat_salt_sd              =   2.7635754536817E-01
(PID.TID 0000.0001) %MON dynstat_salt_del2            =   3.6654456779580E-07
(PID.TID 0000.0001) %MON advcfl_uvel_max              =   3.7163896416452E-04
(PID.TID 0000.0001) %MON advcfl_vvel_max              =   4.3546783514063E-04
(PID.TID 0000.0001) %MON advcfl_wvel_max              =   7.2342064100390E-04
(PID.TID 0000.0001) %MON advcfl_W_hf_max              =   7.2342064100390E-04
(PID.TID 0000.0001) %MON pe_b_mean                    =  -8.3172156316590E-01
(PID.TID 0000.0001) %MON ke_max                       =   8.6618497973797E-06
(PID.TID 0000.0001) %MON ke_mean                      =   2.3209636082242E-08
(PID.TID 0000.0001) %MON ke_vol                       =   4.2725291628498E+12
(PID.TID 0000.0001) // =======================================================
(PID.TID 0000.0001) // End MONITOR dynamic field statistics
(PID.TID 0000.0001) // =======================================================
(PID.TID 0000.0001) // =======================================================
(PID.TID 0000.0001) // Begin OBCS MONITOR field statistics
(PID.TID 0000.0001) // =======================================================
(PID.TID 0000.0001) %MON obc_N_vVel_max               =   1.4751530072959E-05
(PID.TID 0000.0001) %MON obc_N_vVel_min               =   1.4751530072958E-05
(PID.TID 0000.0001) %MON obc_N_vVel_mean              =   1.4751530072959E-05
(PID.TID 0000.0001) %MON obc_N_vVel_sd                =  -2.3781442610900E-23
(PID.TID 0000.0001) %MON obc_N_vVel_Int               =   9.7360098481527E+02
(PID.TID 0000.0001) // =======================================================
(PID.TID 0000.0001) // End OBCS MONITOR field statistics
(PID.TID 0000.0001) // =======================================================
 cg2d: Sum(rhs),rhsMax =   4.52023318217970E+00  2.99884030287226E+02
(PID.TID 0000.0001)      cg2d_init_res =   6.51640008285199E-06
(PID.TID 0000.0001)      cg2d_iters(min,last) =      -1      75
(PID.TID 0000.0001)      cg2d_last_res =   9.86586988810956E-12
(PID.TID 0000.0001) // =======================================================
(PID.TID 0000.0001) // Begin MONITOR dynamic field statistics
(PID.TID 0000.0001) // =======================================================
(PID.TID 0000.0001) %MON time_tsnumber                =                   390
(PID.TID 0000.0001) %MON time_secondsf                =   3.9000000000000E+04
(PID.TID 0000.0001) %MON dynstat_eta_max              =   5.7947554843228E+00
(PID.TID 0000.0001) %MON dynstat_eta_min              =  -1.4197458084792E+01
(PID.TID 0000.0001) %MON dynstat_eta_mean             =  -2.5102698972409E+00
(PID.TID 0000.0001) %MON dynstat_eta_sd               =   4.9521071768819E+00
(PID.TID 0000.0001) %MON dynstat_eta_del2             =   2.0714070682719E-01
(PID.TID 0000.0001) %MON dynstat_uvel_max             =   2.0285939224857E-03
(PID.TID 0000.0001) %MON dynstat_uvel_min             =  -3.7203065835146E-03
(PID.TID 0000.0001) %MON dynstat_uvel_mean            =  -1.1720111456056E-07
(PID.TID 0000.0001) %MON dynstat_uvel_sd              =   1.5300591605703E-04
(PID.TID 0000.0001) %MON dynstat_uvel_del2            =   3.0530802141872E-07
(PID.TID 0000.0001) %MON dynstat_vvel_max             =   4.3575668270792E-03
(PID.TID 0000.0001) %MON dynstat_vvel_min             =  -2.4113074312950E-03
(PID.TID 0000.0001) %MON dynstat_vvel_mean            =   1.4989713640625E-05
(PID.TID 0000.0001) %MON dynstat_vvel_sd              =   1.5301383262802E-04
(PID.TID 0000.0001) %MON dynstat_vvel_del2            =   3.9290684903886E-07
(PID.TID 0000.0001) %MON dynstat_wvel_max             =   1.4059877825985E-04
(PID.TID 0000.0001) %MON dynstat_wvel_min             =  -1.4553441704165E-04
(PID.TID 0000.0001) %MON dynstat_wvel_mean            =   6.6311304720521E-09
(PID.TID 0000.0001) %MON dynstat_wvel_sd              =   2.8767376082678E-05
(PID.TID 0000.0001) %MON dynstat_wvel_del2            =   1.3296823267444E-07
(PID.TID 0000.0001) %MON dynstat_theta_max            =   1.2000000000000E+00
(PID.TID 0000.0001) %MON dynstat_theta_min            =  -1.0000000000000E+00
(PID.TID 0000.0001) %MON dynstat_theta_mean           =   5.6905644622118E-01
(PID.TID 0000.0001) %MON dynstat_theta_sd             =   8.6855928016520E-01
(PID.TID 0000.0001) %MON dynstat_theta_del2           =   1.0579984720554E-06
(PID.TID 0000.0001) %MON dynstat_salt_max             =   3.4700000000000E+01
(PID.TID 0000.0001) %MON dynstat_salt_min             =   3.4000000000000E+01
(PID.TID 0000.0001) %MON dynstat_salt_mean            =   3.4499236714400E+01
(PID.TID 0000.0001) %MON dynstat_salt_sd              =   2.7635749146095E-01
(PID.TID 0000.0001) %MON dynstat_salt_del2            =   3.6640336375253E-07
(PID.TID 0000.0001) %MON advcfl_uvel_max              =   3.7203065835146E-04
(PID.TID 0000.0001) %MON advcfl_vvel_max              =   4.3575668270792E-04
(PID.TID 0000.0001) %MON advcfl_wvel_max              =   7.2767208520823E-04
(PID.TID 0000.0001) %MON advcfl_W_hf_max              =   7.2767208520823E-04
(PID.TID 0000.0001) %MON pe_b_mean                    =  -8.3172558591529E-01
(PID.TID 0000.0001) %MON ke_max                       =   8.6502227940280E-06
(PID.TID 0000.0001) %MON ke_mean                      =   2.3290591008409E-08
(PID.TID 0000.0001) %MON ke_vol                       =   4.2725290798247E+12
(PID.TID 0000.0001) // =======================================================
(PID.TID 0000.0001) // End MONITOR dynamic field statistics
(PID.TID 0000.0001) // =======================================================
(PID.TID 0000.0001) // =======================================================
(PID.TID 0000.0001) // Begin OBCS MONITOR field statistics
(PID.TID 0000.0001) // =======================================================
(PID.TID 0000.0001) %MON obc_N_vVel_max               =   1.4752682368977E-05
(PID.TID 0000.0001) %MON obc_N_vVel_min               =   1.4752682368976E-05
(PID.TID 0000.0001) %MON obc_N_vVel_mean              =   1.4752682368976E-05
(PID.TID 0000.0001) %MON obc_N_vVel_sd                =   2.8489839874377E-12
(PID.TID 0000.0001) %MON obc_N_vVel_Int               =   9.7367703635242E+02
(PID.TID 0000.0001) // =======================================================
(PID.TID 0000.0001) // End OBCS MONITOR field statistics
(PID.TID 0000.0001) // =======================================================
 cg2d: Sum(rhs),rhsMax =   4.52025719343729E+00  2.99884106536635E+02
(PID.TID 0000.0001)      cg2d_init_res =   6.50652899046473E-06
(PID.TID 0000.0001)      cg2d_iters(min,last) =      -1      75
(PID.TID 0000.0001)      cg2d_last_res =   9.86586225290397E-12
(PID.TID 0000.0001) // =======================================================
(PID.TID 0000.0001) // Begin MONITOR dynamic field statistics
(PID.TID 0000.0001) // =======================================================
(PID.TID 0000.0001) %MON time_tsnumber                =                   391
(PID.TID 0000.0001) %MON time_secondsf                =   3.9100000000000E+04
(PID.TID 0000.0001) %MON dynstat_eta_max              =   5.7947220474552E+00
(PID.TID 0000.0001) %MON dynstat_eta_min              =  -1.4197481590934E+01
(PID.TID 0000.0001) %MON dynstat_eta_mean             =  -2.5102838699440E+00
(PID.TID 0000.0001) %MON dynstat_eta_sd               =   4.9521117775570E+00
(PID.TID 0000.0001) %MON dynstat_eta_del2             =   2.0714071245145E-01
(PID.TID 0000.0001) %MON dynstat_uvel_max             =   2.0261458586325E-03
(PID.TID 0000.0001) %MON dynstat_uvel_min             =  -3.7241385354600E-03
(PID.TID 0000.0001) %MON dynstat_uvel_mean            =  -1.1715454102749E-07
(PID.TID 0000.0001) %MON dynstat_uvel_sd              =   1.5343257959082E-04
(PID.TID 0000.0001) %MON dynstat_uvel_del2            =   3.0537076776744E-07
(PID.TID 0000.0001) %MON dynstat_vvel_max             =   4.3603559701584E-03
(PID.TID 0000.0001) %MON dynstat_vvel_min             =  -2.4024826535953E-03
(PID.TID 0000.0001) %MON dynstat_vvel_mean            =   1.4989384210660E-05
(PID.TID 0000.0001) %MON dynstat_vvel_sd              =   1.5312309872622E-04
(PID.TID 0000.0001) %MON dynstat_vvel_del2            =   3.9233026106795E-07
(PID.TID 0000.0001) %MON dynstat_wvel_max             =   1.3881803709009E-04
(PID.TID 0000.0001) %MON dynstat_wvel_min             =  -1.4608126953655E-04
(PID.TID 0000.0001) %MON dynstat_wvel_mean            =   6.6233499643969E-09
(PID.TID 0000.0001) %MON dynstat_wvel_sd              =   2.8711449470308E-05
(PID.TID 0000.0001) %MON dynstat_wvel_del2            =   1.3254674525031E-07
(PID.TID 0000.0001) %MON dynstat_theta_max            =   1.2000000000000E+00
(PID.TID 0000.0001) %MON dynstat_theta_min            =  -1.0000000000000E+00
(PID.TID 0000.0001) %MON dynstat_theta_mean           =   5.6905616003869E-01
(PID.TID 0000.0001) %MON dynstat_theta_sd             =   8.6855913260791E-01
(PID.TID 0000.0001) %MON dynstat_theta_del2           =   1.0570085876203E-06
(PID.TID 0000.0001) %MON dynstat_salt_max             =   3.4700000000000E+01
(PID.TID 0000.0001) %MON dynstat_salt_min             =   3.4000000000000E+01
(PID.TID 0000.0001) %MON dynstat_salt_mean            =   3.4499236600039E+01
(PID.TID 0000.0001) %MON dynstat_salt_sd              =   2.7635743748369E-01
(PID.TID 0000.0001) %MON dynstat_salt_del2            =   3.6627268724443E-07
(PID.TID 0000.0001) %MON advcfl_uvel_max              =   3.7241385354600E-04
(PID.TID 0000.0001) %MON advcfl_vvel_max              =   4.3603559701584E-04
(PID.TID 0000.0001) %MON advcfl_wvel_max              =   7.3040634768276E-04
(PID.TID 0000.0001) %MON advcfl_W_hf_max              =   7.3040634768276E-04
(PID.TID 0000.0001) %MON pe_b_mean                    =  -8.3172960742296E-01
(PID.TID 0000.0001) %MON ke_max                       =   8.6383583146467E-06
(PID.TID 0000.0001) %MON ke_mean                      =   2.3371387673798E-08
(PID.TID 0000.0001) %MON ke_vol                       =   4.2725289968104E+12
(PID.TID 0000.0001) // =======================================================
(PID.TID 0000.0001) // End MONITOR dynamic field statistics
(PID.TID 0000.0001) // =======================================================
(PID.TID 0000.0001) // =======================================================
(PID.TID 0000.0001) // Begin OBCS MONITOR field statistics
(PID.TID 0000.0001) // =======================================================
(PID.TID 0000.0001) %MON obc_N_vVel_max               =   1.4752996628801E-05
(PID.TID 0000.0001) %MON obc_N_vVel_min               =   1.4752996628800E-05
(PID.TID 0000.0001) %MON obc_N_vVel_mean              =   1.4752996628800E-05
(PID.TID 0000.0001) %MON obc_N_vVel_sd                =   2.4594223365038E-12
(PID.TID 0000.0001) %MON obc_N_vVel_Int               =   9.7369777750083E+02
(PID.TID 0000.0001) // =======================================================
(PID.TID 0000.0001) // End OBCS MONITOR field statistics
(PID.TID 0000.0001) // =======================================================
 cg2d: Sum(rhs),rhsMax =   4.52028119796195E+00  2.99884182789589E+02
(PID.TID 0000.0001)      cg2d_init_res =   6.49709836764755E-06
(PID.TID 0000.0001)      cg2d_iters(min,last) =      -1      75
(PID.TID 0000.0001)      cg2d_last_res =   9.88022466687555E-12
(PID.TID 0000.0001) // =======================================================
(PID.TID 0000.0001) // Begin MONITOR dynamic field statistics
(PID.TID 0000.0001) // =======================================================
(PID.TID 0000.0001) %MON time_tsnumber                =                   392
(PID.TID 0000.0001) %MON time_secondsf                =   3.9200000000000E+04
(PID.TID 0000.0001) %MON dynstat_eta_max              =   5.7946886155726E+00
(PID.TID 0000.0001) %MON dynstat_eta_min              =  -1.4197505095269E+01
(PID.TID 0000.0001) %MON dynstat_eta_mean             =  -2.5102978389444E+00
(PID.TID 0000.0001) %MON dynstat_eta_sd               =   4.9521163767023E+00
(PID.TID 0000.0001) %MON dynstat_eta_del2             =   2.0714071811469E-01
(PID.TID 0000.0001) %MON dynstat_uvel_max             =   2.0236291099510E-03
(PID.TID 0000.0001) %MON dynstat_uvel_min             =  -3.7278855149462E-03
(PID.TID 0000.0001) %MON dynstat_uvel_mean            =  -1.1710983917967E-07
(PID.TID 0000.0001) %MON dynstat_uvel_sd              =   1.5385888560512E-04
(PID.TID 0000.0001) %MON dynstat_uvel_del2            =   3.0543847025437E-07
(PID.TID 0000.0001) %MON dynstat_vvel_max             =   4.3630461675219E-03
(PID.TID 0000.0001) %MON dynstat_vvel_min             =  -2.3936390919070E-03
(PID.TID 0000.0001) %MON dynstat_vvel_mean            =   1.4988083595090E-05
(PID.TID 0000.0001) %MON dynstat_vvel_sd              =   1.5323063158326E-04
(PID.TID 0000.0001) %MON dynstat_vvel_del2            =   3.9175658190550E-07
(PID.TID 0000.0001) %MON dynstat_wvel_max             =   1.3820787454260E-04
(PID.TID 0000.0001) %MON dynstat_wvel_min             =  -1.4925580702057E-04
(PID.TID 0000.0001) %MON dynstat_wvel_mean            =   6.6144280358926E-09
(PID.TID 0000.0001) %MON dynstat_wvel_sd              =   2.8655570962142E-05
(PID.TID 0000.0001) %MON dynstat_wvel_del2            =   1.3212094958901E-07
(PID.TID 0000.0001) %MON dynstat_theta_max            =   1.2000000000000E+00
(PID.TID 0000.0001) %MON dynstat_theta_min            =  -1.0000000000000E+00
(PID.TID 0000.0001) %MON dynstat_theta_mean           =   5.6905587335320E-01
(PID.TID 0000.0001) %MON dynstat_theta_sd             =   8.6855898487472E-01
(PID.TID 0000.0001) %MON dynstat_theta_del2           =   1.0560417420617E-06
(PID.TID 0000.0001) %MON dynstat_salt_max             =   3.4700000000000E+01
(PID.TID 0000.0001) %MON dynstat_salt_min             =   3.4000000000000E+01
(PID.TID 0000.0001) %MON dynstat_salt_mean            =   3.4499236485486E+01
(PID.TID 0000.0001) %MON dynstat_salt_sd              =   2.7635738343119E-01
(PID.TID 0000.0001) %MON dynstat_salt_del2            =   3.6614956138657E-07
(PID.TID 0000.0001) %MON advcfl_uvel_max              =   3.7278855149462E-04
(PID.TID 0000.0001) %MON advcfl_vvel_max              =   4.3630461675219E-04
(PID.TID 0000.0001) %MON advcfl_wvel_max              =   7.4627903510284E-04
(PID.TID 0000.0001) %MON advcfl_W_hf_max              =   7.4627903510284E-04
(PID.TID 0000.0001) %MON pe_b_mean                    =  -8.3173362744405E-01
(PID.TID 0000.0001) %MON ke_max                       =   8.6262582013791E-06
(PID.TID 0000.0001) %MON ke_mean                      =   2.3452040769530E-08
(PID.TID 0000.0001) %MON ke_vol                       =   4.2725289138125E+12
(PID.TID 0000.0001) // =======================================================
(PID.TID 0000.0001) // End MONITOR dynamic field statistics
(PID.TID 0000.0001) // =======================================================
(PID.TID 0000.0001) // =======================================================
(PID.TID 0000.0001) // Begin OBCS MONITOR field statistics
(PID.TID 0000.0001) // =======================================================
(PID.TID 0000.0001) %MON obc_N_vVel_max               =   1.4752487822005E-05
(PID.TID 0000.0001) %MON obc_N_vVel_min               =   1.4752487822005E-05
(PID.TID 0000.0001) %MON obc_N_vVel_mean              =   1.4752487822005E-05
(PID.TID 0000.0001) %MON obc_N_vVel_sd                =  -5.4025233757370E-24
(PID.TID 0000.0001) %MON obc_N_vVel_Int               =   9.7366419625234E+02
(PID.TID 0000.0001) // =======================================================
(PID.TID 0000.0001) // End OBCS MONITOR field statistics
(PID.TID 0000.0001) // =======================================================
 cg2d: Sum(rhs),rhsMax =   4.52030519404589E+00  2.99884259054699E+02
(PID.TID 0000.0001)      cg2d_init_res =   6.48841841748553E-06
(PID.TID 0000.0001)      cg2d_iters(min,last) =      -1      75
(PID.TID 0000.0001)      cg2d_last_res =   9.89461017827285E-12
(PID.TID 0000.0001) // =======================================================
(PID.TID 0000.0001) // Begin MONITOR dynamic field statistics
(PID.TID 0000.0001) // =======================================================
(PID.TID 0000.0001) %MON time_tsnumber                =                   393
(PID.TID 0000.0001) %MON time_secondsf                =   3.9300000000000E+04
(PID.TID 0000.0001) %MON dynstat_eta_max              =   5.7946551892804E+00
(PID.TID 0000.0001) %MON dynstat_eta_min              =  -1.4197528596447E+01
(PID.TID 0000.0001) %MON dynstat_eta_mean             =  -2.5103118033659E+00
(PID.TID 0000.0001) %MON dynstat_eta_sd               =   4.9521209740861E+00
(PID.TID 0000.0001) %MON dynstat_eta_del2             =   2.0714072381712E-01
(PID.TID 0000.0001) %MON dynstat_uvel_max             =   2.0210438949189E-03
(PID.TID 0000.0001) %MON dynstat_uvel_min             =  -3.7315475429689E-03
(PID.TID 0000.0001) %MON dynstat_uvel_mean            =  -1.1706859418122E-07
(PID.TID 0000.0001) %MON dynstat_uvel_sd              =   1.5428481886504E-04
(PID.TID 0000.0001) %MON dynstat_uvel_del2            =   3.0551111149567E-07
(PID.TID 0000.0001) %MON dynstat_vvel_max             =   4.3656378450407E-03
(PID.TID 0000.0001) %MON dynstat_vvel_min             =  -2.3847771293628E-03
(PID.TID 0000.0001) %MON dynstat_vvel_mean            =   1.4985885563335E-05
(PID.TID 0000.0001) %MON dynstat_vvel_sd              =   1.5333654421887E-04
(PID.TID 0000.0001) %MON dynstat_vvel_del2            =   3.9119493153188E-07
(PID.TID 0000.0001) %MON dynstat_wvel_max             =   1.4052965381662E-04
(PID.TID 0000.0001) %MON dynstat_wvel_min             =  -1.5039282772980E-04
(PID.TID 0000.0001) %MON dynstat_wvel_mean            =   6.6047021262301E-09
(PID.TID 0000.0001) %MON dynstat_wvel_sd              =   2.8600506243368E-05
(PID.TID 0000.0001) %MON dynstat_wvel_del2            =   1.3170301829482E-07
(PID.TID 0000.0001) %MON dynstat_theta_max            =   1.2000000000000E+00
(PID.TID 0000.0001) %MON dynstat_theta_min            =  -1.0000000000000E+00
(PID.TID 0000.0001) %MON dynstat_theta_mean           =   5.6905558616074E-01
(PID.TID 0000.0001) %MON dynstat_theta_sd             =   8.6855883694672E-01
(PID.TID 0000.0001) %MON dynstat_theta_del2           =   1.0550875482524E-06
(PID.TID 0000.0001) %MON dynstat_salt_max             =   3.4700000000000E+01
(PID.TID 0000.0001) %MON dynstat_salt_min             =   3.4000000000000E+01
(PID.TID 0000.0001) %MON dynstat_salt_mean            =   3.4499236370741E+01
(PID.TID 0000.0001) %MON dynstat_salt_sd              =   2.7635732929737E-01
(PID.TID 0000.0001) %MON dynstat_salt_del2            =   3.6603087294246E-07
(PID.TID 0000.0001) %MON advcfl_uvel_max              =   3.7315475429689E-04
(PID.TID 0000.0001) %MON advcfl_vvel_max              =   4.3656378450407E-04
(PID.TID 0000.0001) %MON advcfl_wvel_max              =   7.5196413864899E-04
(PID.TID 0000.0001) %MON advcfl_W_hf_max              =   7.5196413864899E-04
(PID.TID 0000.0001) %MON pe_b_mean                    =  -8.3173764575675E-01
(PID.TID 0000.0001) %MON ke_max                       =   8.6139244085337E-06
(PID.TID 0000.0001) %MON ke_mean                      =   2.3532565417706E-08
(PID.TID 0000.0001) %MON ke_vol                       =   4.2725288308367E+12
(PID.TID 0000.0001) // =======================================================
(PID.TID 0000.0001) // End MONITOR dynamic field statistics
(PID.TID 0000.0001) // =======================================================
(PID.TID 0000.0001) // =======================================================
(PID.TID 0000.0001) // Begin OBCS MONITOR field statistics
(PID.TID 0000.0001) // =======================================================
(PID.TID 0000.0001) %MON obc_N_vVel_max               =   1.4751198298140E-05
(PID.TID 0000.0001) %MON obc_N_vVel_min               =   1.4751198298140E-05
(PID.TID 0000.0001) %MON obc_N_vVel_mean              =   1.4751198298140E-05
(PID.TID 0000.0001) %MON obc_N_vVel_sd                =  -2.1196503196671E-24
(PID.TID 0000.0001) %MON obc_N_vVel_Int               =   9.7357908767724E+02
(PID.TID 0000.0001) // =======================================================
(PID.TID 0000.0001) // End OBCS MONITOR field statistics
(PID.TID 0000.0001) // =======================================================
 cg2d: Sum(rhs),rhsMax =   4.52032918010575E+00  2.99884335341019E+02
(PID.TID 0000.0001)      cg2d_init_res =   6.48076653316972E-06
(PID.TID 0000.0001)      cg2d_iters(min,last) =      -1      75
(PID.TID 0000.0001)      cg2d_last_res =   9.89805485076656E-12
(PID.TID 0000.0001) // =======================================================
(PID.TID 0000.0001) // Begin MONITOR dynamic field statistics
(PID.TID 0000.0001) // =======================================================
(PID.TID 0000.0001) %MON time_tsnumber                =                   394
(PID.TID 0000.0001) %MON time_secondsf                =   3.9400000000000E+04
(PID.TID 0000.0001) %MON dynstat_eta_max              =   5.7946217691210E+00
(PID.TID 0000.0001) %MON dynstat_eta_min              =  -1.4197552093275E+01
(PID.TID 0000.0001) %MON dynstat_eta_mean             =  -2.5103257624049E+00
(PID.TID 0000.0001) %MON dynstat_eta_sd               =   4.9521255695203E+00
(PID.TID 0000.0001) %MON dynstat_eta_del2             =   2.0714072955883E-01
(PID.TID 0000.0001) %MON dynstat_uvel_max             =   2.0183904346025E-03
(PID.TID 0000.0001) %MON dynstat_uvel_min             =  -3.7351246464846E-03
(PID.TID 0000.0001) %MON dynstat_uvel_mean            =  -1.1703227906662E-07
(PID.TID 0000.0001) %MON dynstat_uvel_sd              =   1.5471036380687E-04
(PID.TID 0000.0001) %MON dynstat_uvel_del2            =   3.0558867092651E-07
(PID.TID 0000.0001) %MON dynstat_vvel_max             =   4.3681314658146E-03
(PID.TID 0000.0001) %MON dynstat_vvel_min             =  -2.3758971092418E-03
(PID.TID 0000.0001) %MON dynstat_vvel_mean            =   1.4982892019013E-05
(PID.TID 0000.0001) %MON dynstat_vvel_sd              =   1.5344090805962E-04
(PID.TID 0000.0001) %MON dynstat_vvel_del2            =   3.9065358757440E-07
(PID.TID 0000.0001) %MON dynstat_wvel_max             =   1.4286820783831E-04
(PID.TID 0000.0001) %MON dynstat_wvel_min             =  -1.4946735385974E-04
(PID.TID 0000.0001) %MON dynstat_wvel_mean            =   6.5945279716910E-09
(PID.TID 0000.0001) %MON dynstat_wvel_sd              =   2.8546963668932E-05
(PID.TID 0000.0001) %MON dynstat_wvel_del2            =   1.3130408184022E-07
(PID.TID 0000.0001) %MON dynstat_theta_max            =   1.2000000000000E+00
(PID.TID 0000.0001) %MON dynstat_theta_min            =  -1.0000000000000E+00
(PID.TID 0000.0001) %MON dynstat_theta_mean           =   5.6905529845733E-01
(PID.TID 0000.0001) %MON dynstat_theta_sd             =   8.6855868880193E-01
(PID.TID 0000.0001) %MON dynstat_theta_del2           =   1.0541361578945E-06
(PID.TID 0000.0001) %MON dynstat_salt_max             =   3.4700000000000E+01
(PID.TID 0000.0001) %MON dynstat_salt_min             =   3.4000000000000E+01
(PID.TID 0000.0001) %MON dynstat_salt_mean            =   3.4499236255802E+01
(PID.TID 0000.0001) %MON dynstat_salt_sd              =   2.7635727507505E-01
(PID.TID 0000.0001) %MON dynstat_salt_del2            =   3.6591378295092E-07
(PID.TID 0000.0001) %MON advcfl_uvel_max              =   3.7351246464846E-04
(PID.TID 0000.0001) %MON advcfl_vvel_max              =   4.3681314658146E-04
(PID.TID 0000.0001) %MON advcfl_wvel_max              =   7.4733676929872E-04
(PID.TID 0000.0001) %MON advcfl_W_hf_max              =   7.4733676929872E-04
(PID.TID 0000.0001) %MON pe_b_mean                    =  -8.3174166216594E-01
(PID.TID 0000.0001) %MON ke_max                       =   8.6013590004080E-06
(PID.TID 0000.0001) %MON ke_mean                      =   2.3612970760562E-08
(PID.TID 0000.0001) %MON ke_vol                       =   4.2725287478880E+12
(PID.TID 0000.0001) // =======================================================
(PID.TID 0000.0001) // End MONITOR dynamic field statistics
(PID.TID 0000.0001) // =======================================================
(PID.TID 0000.0001) // =======================================================
(PID.TID 0000.0001) // Begin OBCS MONITOR field statistics
(PID.TID 0000.0001) // =======================================================
(PID.TID 0000.0001) %MON obc_N_vVel_max               =   1.4749195541299E-05
(PID.TID 0000.0001) %MON obc_N_vVel_min               =   1.4749195541299E-05
(PID.TID 0000.0001) %MON obc_N_vVel_mean              =   1.4749195541299E-05
(PID.TID 0000.0001) %MON obc_N_vVel_sd                =   3.6943849430081E-12
(PID.TID 0000.0001) %MON obc_N_vVel_Int               =   9.7344690572573E+02
(PID.TID 0000.0001) // =======================================================
(PID.TID 0000.0001) // End OBCS MONITOR field statistics
(PID.TID 0000.0001) // =======================================================
 cg2d: Sum(rhs),rhsMax =   4.52035315472937E+00  2.99884411657733E+02
(PID.TID 0000.0001)      cg2d_init_res =   6.47435311417340E-06
(PID.TID 0000.0001)      cg2d_iters(min,last) =      -1      75
(PID.TID 0000.0001)      cg2d_last_res =   9.88621240474752E-12
(PID.TID 0000.0001) // =======================================================
(PID.TID 0000.0001) // Begin MONITOR dynamic field statistics
(PID.TID 0000.0001) // =======================================================
(PID.TID 0000.0001) %MON time_tsnumber                =                   395
(PID.TID 0000.0001) %MON time_secondsf                =   3.9500000000000E+04
(PID.TID 0000.0001) %MON dynstat_eta_max              =   5.7945883555411E+00
(PID.TID 0000.0001) %MON dynstat_eta_min              =  -1.4197575584771E+01
(PID.TID 0000.0001) %MON dynstat_eta_mean             =  -2.5103397153541E+00
(PID.TID 0000.0001) %MON dynstat_eta_sd               =   4.9521301628698E+00
(PID.TID 0000.0001) %MON dynstat_eta_del2             =   2.0714073533991E-01
(PID.TID 0000.0001) %MON dynstat_uvel_max             =   2.0156689531867E-03
(PID.TID 0000.0001) %MON dynstat_uvel_min             =  -3.7386168569550E-03
(PID.TID 0000.0001) %MON dynstat_uvel_mean            =  -1.1700223339276E-07
(PID.TID 0000.0001) %MON dynstat_uvel_sd              =   1.5513550448012E-04
(PID.TID 0000.0001) %MON dynstat_uvel_del2            =   3.0567112460543E-07
(PID.TID 0000.0001) %MON dynstat_vvel_max             =   4.3705275263601E-03
(PID.TID 0000.0001) %MON dynstat_vvel_min             =  -2.3669993419615E-03
(PID.TID 0000.0001) %MON dynstat_vvel_mean            =   1.4979228954099E-05
(PID.TID 0000.0001) %MON dynstat_vvel_sd              =   1.5354371592480E-04
(PID.TID 0000.0001) %MON dynstat_vvel_del2            =   3.9013892742090E-07
(PID.TID 0000.0001) %MON dynstat_wvel_max             =   1.4286595353285E-04
(PID.TID 0000.0001) %MON dynstat_wvel_min             =  -1.4648389438150E-04
(PID.TID 0000.0001) %MON dynstat_wvel_mean            =   6.5842658183250E-09
(PID.TID 0000.0001) %MON dynstat_wvel_sd              =   2.8495502031451E-05
(PID.TID 0000.0001) %MON dynstat_wvel_del2            =   1.3093277745417E-07
(PID.TID 0000.0001) %MON dynstat_theta_max            =   1.2000000000000E+00
(PID.TID 0000.0001) %MON dynstat_theta_min            =  -1.0000000000000E+00
(PID.TID 0000.0001) %MON dynstat_theta_mean           =   5.6905501023887E-01
(PID.TID 0000.0001) %MON dynstat_theta_sd             =   8.6855854045375E-01
(PID.TID 0000.0001) %MON dynstat_theta_del2           =   1.0531814819677E-06
(PID.TID 0000.0001) %MON dynstat_salt_max             =   3.4700000000000E+01
(PID.TID 0000.0001) %MON dynstat_salt_min             =   3.4000000000000E+01
(PID.TID 0000.0001) %MON dynstat_salt_mean            =   3.4499236140668E+01
(PID.TID 0000.0001) %MON dynstat_salt_sd              =   2.7635722076871E-01
(PID.TID 0000.0001) %MON dynstat_salt_del2            =   3.6579637738437E-07
(PID.TID 0000.0001) %MON advcfl_uvel_max              =   3.7386168569550E-04
(PID.TID 0000.0001) %MON advcfl_vvel_max              =   4.3705275263601E-04
(PID.TID 0000.0001) %MON advcfl_wvel_max              =   7.3241947190751E-04
(PID.TID 0000.0001) %MON advcfl_W_hf_max              =   7.3241947190751E-04
(PID.TID 0000.0001) %MON pe_b_mean                    =  -8.3174567650852E-01
(PID.TID 0000.0001) %MON ke_max                       =   8.5885641269313E-06
(PID.TID 0000.0001) %MON ke_mean                      =   2.3693254183498E-08
(PID.TID 0000.0001) %MON ke_vol                       =   4.2725286649713E+12
(PID.TID 0000.0001) // =======================================================
(PID.TID 0000.0001) // End MONITOR dynamic field statistics
(PID.TID 0000.0001) // =======================================================
(PID.TID 0000.0001) // =======================================================
(PID.TID 0000.0001) // Begin OBCS MONITOR field statistics
(PID.TID 0000.0001) // =======================================================
(PID.TID 0000.0001) %MON obc_N_vVel_max               =   1.4746569318680E-05
(PID.TID 0000.0001) %MON obc_N_vVel_min               =   1.4746569318679E-05
(PID.TID 0000.0001) %MON obc_N_vVel_mean              =   1.4746569318680E-05
(PID.TID 0000.0001) %MON obc_N_vVel_sd                =  -1.3338287377418E-23
(PID.TID 0000.0001) %MON obc_N_vVel_Int               =   9.7327357503285E+02
(PID.TID 0000.0001) // =======================================================
(PID.TID 0000.0001) // End OBCS MONITOR field statistics
(PID.TID 0000.0001) // =======================================================
 cg2d: Sum(rhs),rhsMax =   4.52037711673472E+00  2.99884488013749E+02
(PID.TID 0000.0001)      cg2d_init_res =   6.46932611537150E-06
(PID.TID 0000.0001)      cg2d_iters(min,last) =      -1      75
(PID.TID 0000.0001)      cg2d_last_res =   9.86093134042724E-12
(PID.TID 0000.0001) // =======================================================
(PID.TID 0000.0001) // Begin MONITOR dynamic field statistics
(PID.TID 0000.0001) // =======================================================
(PID.TID 0000.0001) %MON time_tsnumber                =                   396
(PID.TID 0000.0001) %MON time_secondsf                =   3.9600000000000E+04
(PID.TID 0000.0001) %MON dynstat_eta_max              =   5.7945549491561E+00
(PID.TID 0000.0001) %MON dynstat_eta_min              =  -1.4197599070191E+01
(PID.TID 0000.0001) %MON dynstat_eta_mean             =  -2.5103536616316E+00
(PID.TID 0000.0001) %MON dynstat_eta_sd               =   4.9521347540552E+00
(PID.TID 0000.0001) %MON dynstat_eta_del2             =   2.0714074116038E-01
(PID.TID 0000.0001) %MON dynstat_uvel_max             =   2.0128796780688E-03
(PID.TID 0000.0001) %MON dynstat_uvel_min             =  -3.7420242105027E-03
(PID.TID 0000.0001) %MON dynstat_uvel_mean            =  -1.1697959305054E-07
(PID.TID 0000.0001) %MON dynstat_uvel_sd              =   1.5556022452916E-04
(PID.TID 0000.0001) %MON dynstat_uvel_del2            =   3.0575844646270E-07
(PID.TID 0000.0001) %MON dynstat_vvel_max             =   4.3728265507310E-03
(PID.TID 0000.0001) %MON dynstat_vvel_min             =  -2.3580841124797E-03
(PID.TID 0000.0001) %MON dynstat_vvel_mean            =   1.4975041630520E-05
(PID.TID 0000.0001) %MON dynstat_vvel_sd              =   1.5364485435502E-04
(PID.TID 0000.0001) %MON dynstat_vvel_del2            =   3.8965464515566E-07
(PID.TID 0000.0001) %MON dynstat_wvel_max             =   1.4053162912338E-04
(PID.TID 0000.0001) %MON dynstat_wvel_min             =  -1.4147680992155E-04
(PID.TID 0000.0001) %MON dynstat_wvel_mean            =   6.5742703418559E-09
(PID.TID 0000.0001) %MON dynstat_wvel_sd              =   2.8446459957730E-05
(PID.TID 0000.0001) %MON dynstat_wvel_del2            =   1.3059415862942E-07
(PID.TID 0000.0001) %MON dynstat_theta_max            =   1.2000000000000E+00
(PID.TID 0000.0001) %MON dynstat_theta_min            =  -1.0000000000000E+00
(PID.TID 0000.0001) %MON dynstat_theta_mean           =   5.6905472150215E-01
(PID.TID 0000.0001) %MON dynstat_theta_sd             =   8.6855839190640E-01
(PID.TID 0000.0001) %MON dynstat_theta_del2           =   1.0522199793271E-06
(PID.TID 0000.0001) %MON dynstat_salt_max             =   3.4700000000000E+01
(PID.TID 0000.0001) %MON dynstat_salt_min             =   3.4000000000000E+01
(PID.TID 0000.0001) %MON dynstat_salt_mean            =   3.4499236025338E+01
(PID.TID 0000.0001) %MON dynstat_salt_sd              =   2.7635716637945E-01
(PID.TID 0000.0001) %MON dynstat_salt_del2            =   3.6567775003110E-07
(PID.TID 0000.0001) %MON advcfl_uvel_max              =   3.7420242105027E-04
(PID.TID 0000.0001) %MON advcfl_vvel_max              =   4.3728265507310E-04
(PID.TID 0000.0001) %MON advcfl_wvel_max              =   7.0738404960773E-04
(PID.TID 0000.0001) %MON advcfl_W_hf_max              =   7.0738404960773E-04
(PID.TID 0000.0001) %MON pe_b_mean                    =  -8.3174968866012E-01
(PID.TID 0000.0001) %MON ke_max                       =   8.5755420024180E-06
(PID.TID 0000.0001) %MON ke_mean                      =   2.3773396946344E-08
(PID.TID 0000.0001) %MON ke_vol                       =   4.2725285820908E+12
(PID.TID 0000.0001) // =======================================================
(PID.TID 0000.0001) // End MONITOR dynamic field statistics
(PID.TID 0000.0001) // =======================================================
(PID.TID 0000.0001) // =======================================================
(PID.TID 0000.0001) // Begin OBCS MONITOR field statistics
(PID.TID 0000.0001) // =======================================================
(PID.TID 0000.0001) %MON obc_N_vVel_max               =   1.4743427956050E-05
(PID.TID 0000.0001) %MON obc_N_vVel_min               =   1.4743427956049E-05
(PID.TID 0000.0001) %MON obc_N_vVel_mean              =   1.4743427956049E-05
(PID.TID 0000.0001) %MON obc_N_vVel_sd                =   3.5444048235422E-12
(PID.TID 0000.0001) %MON obc_N_vVel_Int               =   9.7306624509925E+02
(PID.TID 0000.0001) // =======================================================
(PID.TID 0000.0001) // End OBCS MONITOR field statistics
(PID.TID 0000.0001) // =======================================================
 cg2d: Sum(rhs),rhsMax =   4.52040106519296E+00  2.99884564417373E+02
(PID.TID 0000.0001)      cg2d_init_res =   6.46573037376437E-06
(PID.TID 0000.0001)      cg2d_iters(min,last) =      -1      75
(PID.TID 0000.0001)      cg2d_last_res =   9.82999366040878E-12
(PID.TID 0000.0001) // =======================================================
(PID.TID 0000.0001) // Begin MONITOR dynamic field statistics
(PID.TID 0000.0001) // =======================================================
(PID.TID 0000.0001) %MON time_tsnumber                =                   397
(PID.TID 0000.0001) %MON time_secondsf                =   3.9700000000000E+04
(PID.TID 0000.0001) %MON dynstat_eta_max              =   5.7945215490078E+00
(PID.TID 0000.0001) %MON dynstat_eta_min              =  -1.4197622549040E+01
(PID.TID 0000.0001) %MON dynstat_eta_mean             =  -2.5103676007911E+00
(PID.TID 0000.0001) %MON dynstat_eta_sd               =   4.9521393430485E+00
(PID.TID 0000.0001) %MON dynstat_eta_del2             =   2.0714074702007E-01
(PID.TID 0000.0001) %MON dynstat_uvel_max             =   2.0100228398830E-03
(PID.TID 0000.0001) %MON dynstat_uvel_min             =  -3.7453467470598E-03
(PID.TID 0000.0001) %MON dynstat_uvel_mean            =  -1.1696528453106E-07
(PID.TID 0000.0001) %MON dynstat_uvel_sd              =   1.5598450705580E-04
(PID.TID 0000.0001) %MON dynstat_uvel_del2            =   3.0585060645720E-07
(PID.TID 0000.0001) %MON dynstat_vvel_max             =   4.3750290837687E-03
(PID.TID 0000.0001) %MON dynstat_vvel_min             =  -2.3491516868681E-03
(PID.TID 0000.0001) %MON dynstat_vvel_mean            =   1.4970489196761E-05
(PID.TID 0000.0001) %MON dynstat_vvel_sd              =   1.5374408794003E-04
(PID.TID 0000.0001) %MON dynstat_vvel_del2            =   3.8920133218279E-07
(PID.TID 0000.0001) %MON dynstat_wvel_max             =   1.3591326587981E-04
(PID.TID 0000.0001) %MON dynstat_wvel_min             =  -1.3451023753983E-04
(PID.TID 0000.0001) %MON dynstat_wvel_mean            =   6.5648782803354E-09
(PID.TID 0000.0001) %MON dynstat_wvel_sd              =   2.8399914934133E-05
(PID.TID 0000.0001) %MON dynstat_wvel_del2            =   1.3028910213917E-07
(PID.TID 0000.0001) %MON dynstat_theta_max            =   1.2000000000000E+00
(PID.TID 0000.0001) %MON dynstat_theta_min            =  -1.0000000000000E+00
(PID.TID 0000.0001) %MON dynstat_theta_mean           =   5.6905443224420E-01
(PID.TID 0000.0001) %MON dynstat_theta_sd             =   8.6855824315498E-01
(PID.TID 0000.0001) %MON dynstat_theta_del2           =   1.0512518359448E-06
(PID.TID 0000.0001) %MON dynstat_salt_max             =   3.4700000000000E+01
(PID.TID 0000.0001) %MON dynstat_salt_min             =   3.4000000000000E+01
(PID.TID 0000.0001) %MON dynstat_salt_mean            =   3.4499235909811E+01
(PID.TID 0000.0001) %MON dynstat_salt_sd              =   2.7635711190577E-01
(PID.TID 0000.0001) %MON dynstat_salt_del2            =   3.6555786096519E-07
(PID.TID 0000.0001) %MON advcfl_uvel_max              =   3.7453467470598E-04
(PID.TID 0000.0001) %MON advcfl_vvel_max              =   4.3750290837687E-04
(PID.TID 0000.0001) %MON advcfl_wvel_max              =   6.7956632939904E-04
(PID.TID 0000.0001) %MON advcfl_W_hf_max              =   6.7956632939904E-04
(PID.TID 0000.0001) %MON pe_b_mean                    =  -8.3175369853566E-01
(PID.TID 0000.0001) %MON ke_max                       =   8.5622948863416E-06
(PID.TID 0000.0001) %MON ke_mean                      =   2.3853361618658E-08
(PID.TID 0000.0001) %MON ke_vol                       =   4.2725284992499E+12
(PID.TID 0000.0001) // =======================================================
(PID.TID 0000.0001) // End MONITOR dynamic field statistics
(PID.TID 0000.0001) // =======================================================
(PID.TID 0000.0001) // =======================================================
(PID.TID 0000.0001) // Begin OBCS MONITOR field statistics
(PID.TID 0000.0001) // =======================================================
(PID.TID 0000.0001) %MON obc_N_vVel_max               =   1.4739894365348E-05
(PID.TID 0000.0001) %MON obc_N_vVel_min               =   1.4739894365348E-05
(PID.TID 0000.0001) %MON obc_N_vVel_mean              =   1.4739894365348E-05
(PID.TID 0000.0001) %MON obc_N_vVel_sd                =  -1.0003715533063E-23
(PID.TID 0000.0001) %MON obc_N_vVel_Int               =   9.7283302811296E+02
(PID.TID 0000.0001) // =======================================================
(PID.TID 0000.0001) // End OBCS MONITOR field statistics
(PID.TID 0000.0001) // =======================================================
 cg2d: Sum(rhs),rhsMax =   4.52042499946512E+00  2.99884640875996E+02
(PID.TID 0000.0001)      cg2d_init_res =   6.46350523357272E-06
(PID.TID 0000.0001)      cg2d_iters(min,last) =      -1      75
(PID.TID 0000.0001)      cg2d_last_res =   9.80327798319633E-12
(PID.TID 0000.0001) // =======================================================
(PID.TID 0000.0001) // Begin MONITOR dynamic field statistics
(PID.TID 0000.0001) // =======================================================
(PID.TID 0000.0001) %MON time_tsnumber                =                   398
(PID.TID 0000.0001) %MON time_secondsf                =   3.9800000000000E+04
(PID.TID 0000.0001) %MON dynstat_eta_max              =   5.7944881560621E+00
(PID.TID 0000.0001) %MON dynstat_eta_min              =  -1.4197646021101E+01
(PID.TID 0000.0001) %MON dynstat_eta_mean             =  -2.5103815325398E+00
(PID.TID 0000.0001) %MON dynstat_eta_sd               =   4.9521439298845E+00
(PID.TID 0000.0001) %MON dynstat_eta_del2             =   2.0714075291932E-01
(PID.TID 0000.0001) %MON dynstat_uvel_max             =   2.0070986725030E-03
(PID.TID 0000.0001) %MON dynstat_uvel_min             =  -3.7485845107035E-03
(PID.TID 0000.0001) %MON dynstat_uvel_mean            =  -1.1695994738449E-07
(PID.TID 0000.0001) %MON dynstat_uvel_sd              =   1.5640833471261E-04
(PID.TID 0000.0001) %MON dynstat_uvel_del2            =   3.0594757414908E-07
(PID.TID 0000.0001) %MON dynstat_vvel_max             =   4.3771356928541E-03
(PID.TID 0000.0001) %MON dynstat_vvel_min             =  -2.3402023198829E-03
(PID.TID 0000.0001) %MON dynstat_vvel_mean            =   1.4965739012501E-05
(PID.TID 0000.0001) %MON dynstat_vvel_sd              =   1.5384105771437E-04
(PID.TID 0000.0001) %MON dynstat_vvel_del2            =   3.8877647220579E-07
(PID.TID 0000.0001) %MON dynstat_wvel_max             =   1.3453860097749E-04
(PID.TID 0000.0001) %MON dynstat_wvel_min             =  -1.3663194956784E-04
(PID.TID 0000.0001) %MON dynstat_wvel_mean            =   6.5563962676153E-09
(PID.TID 0000.0001) %MON dynstat_wvel_sd              =   2.8355676712408E-05
(PID.TID 0000.0001) %MON dynstat_wvel_del2            =   1.3001428651268E-07
(PID.TID 0000.0001) %MON dynstat_theta_max            =   1.2000000000000E+00
(PID.TID 0000.0001) %MON dynstat_theta_min            =  -1.0000000000000E+00
(PID.TID 0000.0001) %MON dynstat_theta_mean           =   5.6905414246305E-01
(PID.TID 0000.0001) %MON dynstat_theta_sd             =   8.6855809423281E-01
(PID.TID 0000.0001) %MON dynstat_theta_del2           =   1.0502808285617E-06
(PID.TID 0000.0001) %MON dynstat_salt_max             =   3.4700000000000E+01
(PID.TID 0000.0001) %MON dynstat_salt_min             =   3.4000000000000E+01
(PID.TID 0000.0001) %MON dynstat_salt_mean            =   3.4499235794085E+01
(PID.TID 0000.0001) %MON dynstat_salt_sd              =   2.7635705735791E-01
(PID.TID 0000.0001) %MON dynstat_salt_del2            =   3.6543776480130E-07
(PID.TID 0000.0001) %MON advcfl_uvel_max              =   3.7485845107035E-04
(PID.TID 0000.0001) %MON advcfl_vvel_max              =   4.3771356928541E-04
(PID.TID 0000.0001) %MON advcfl_wvel_max              =   6.8315974783918E-04
(PID.TID 0000.0001) %MON advcfl_W_hf_max              =   6.8315974783918E-04
(PID.TID 0000.0001) %MON pe_b_mean                    =  -8.3175770609505E-01
(PID.TID 0000.0001) %MON ke_max                       =   8.5488250634099E-06
(PID.TID 0000.0001) %MON ke_mean                      =   2.3933091703456E-08
(PID.TID 0000.0001) %MON ke_vol                       =   4.2725284164513E+12
(PID.TID 0000.0001) // =======================================================
(PID.TID 0000.0001) // End MONITOR dynamic field statistics
(PID.TID 0000.0001) // =======================================================
(PID.TID 0000.0001) // =======================================================
(PID.TID 0000.0001) // Begin OBCS MONITOR field statistics
(PID.TID 0000.0001) // =======================================================
(PID.TID 0000.0001) %MON obc_N_vVel_max               =   1.4736101607563E-05
(PID.TID 0000.0001) %MON obc_N_vVel_min               =   1.4736101607563E-05
(PID.TID 0000.0001) %MON obc_N_vVel_mean              =   1.4736101607563E-05
(PID.TID 0000.0001) %MON obc_N_vVel_sd                =   4.0927261579782E-12
(PID.TID 0000.0001) %MON obc_N_vVel_Int               =   9.7258270609914E+02
(PID.TID 0000.0001) // =======================================================
(PID.TID 0000.0001) // End OBCS MONITOR field statistics
(PID.TID 0000.0001) // =======================================================
 cg2d: Sum(rhs),rhsMax =   4.52044891920179E+00  2.99884717395775E+02
(PID.TID 0000.0001)      cg2d_init_res =   6.46248921971029E-06
(PID.TID 0000.0001)      cg2d_iters(min,last) =      -1      75
(PID.TID 0000.0001)      cg2d_last_res =   9.78845735194563E-12
(PID.TID 0000.0001) // =======================================================
(PID.TID 0000.0001) // Begin MONITOR dynamic field statistics
(PID.TID 0000.0001) // =======================================================
(PID.TID 0000.0001) %MON time_tsnumber                =                   399
(PID.TID 0000.0001) %MON time_secondsf                =   3.9900000000000E+04
(PID.TID 0000.0001) %MON dynstat_eta_max              =   5.7944547703453E+00
(PID.TID 0000.0001) %MON dynstat_eta_min              =  -1.4197669486419E+01
(PID.TID 0000.0001) %MON dynstat_eta_mean             =  -2.5103954567349E+00
(PID.TID 0000.0001) %MON dynstat_eta_sd               =   4.9521485146548E+00
(PID.TID 0000.0001) %MON dynstat_eta_del2             =   2.0714075885845E-01
(PID.TID 0000.0001) %MON dynstat_uvel_max             =   2.0041074131373E-03
(PID.TID 0000.0001) %MON dynstat_uvel_min             =  -3.7517375493855E-03
(PID.TID 0000.0001) %MON dynstat_uvel_mean            =  -1.1696390350680E-07
(PID.TID 0000.0001) %MON dynstat_uvel_sd              =   1.5683168962282E-04
(PID.TID 0000.0001) %MON dynstat_uvel_del2            =   3.0604931780481E-07
(PID.TID 0000.0001) %MON dynstat_vvel_max             =   4.3791469474037E-03
(PID.TID 0000.0001) %MON dynstat_vvel_min             =  -2.3312362628944E-03
(PID.TID 0000.0001) %MON dynstat_vvel_mean            =   1.4960960827471E-05
(PID.TID 0000.0001) %MON dynstat_vvel_sd              =   1.5393529353843E-04
(PID.TID 0000.0001) %MON dynstat_vvel_del2            =   3.8837484408789E-07
(PID.TID 0000.0001) %MON dynstat_wvel_max             =   1.3640854620046E-04
(PID.TID 0000.0001) %MON dynstat_wvel_min             =  -1.3950341495245E-04
(PID.TID 0000.0001) %MON dynstat_wvel_mean            =   6.5490933231368E-09
(PID.TID 0000.0001) %MON dynstat_wvel_sd              =   2.8313315626583E-05
(PID.TID 0000.0001) %MON dynstat_wvel_del2            =   1.2976274077848E-07
(PID.TID 0000.0001) %MON dynstat_theta_max            =   1.2000000000000E+00
(PID.TID 0000.0001) %MON dynstat_theta_min            =  -1.0000000000000E+00
(PID.TID 0000.0001) %MON dynstat_theta_mean           =   5.6905385215673E-01
(PID.TID 0000.0001) %MON dynstat_theta_sd             =   8.6855794518670E-01
(PID.TID 0000.0001) %MON dynstat_theta_del2           =   1.0493145847988E-06
(PID.TID 0000.0001) %MON dynstat_salt_max             =   3.4700000000000E+01
(PID.TID 0000.0001) %MON dynstat_salt_min             =   3.4000000000000E+01
(PID.TID 0000.0001) %MON dynstat_salt_mean            =   3.4499235678161E+01
(PID.TID 0000.0001) %MON dynstat_salt_sd              =   2.7635700275101E-01
(PID.TID 0000.0001) %MON dynstat_salt_del2            =   3.6531965465578E-07
(PID.TID 0000.0001) %MON advcfl_uvel_max              =   3.7517375493855E-04
(PID.TID 0000.0001) %MON advcfl_vvel_max              =   4.3791469474037E-04
(PID.TID 0000.0001) %MON advcfl_wvel_max              =   6.9751707476224E-04
(PID.TID 0000.0001) %MON advcfl_W_hf_max              =   6.9751707476224E-04
(PID.TID 0000.0001) %MON pe_b_mean                    =  -8.3176171133978E-01
(PID.TID 0000.0001) %MON ke_max                       =   8.5351348217322E-06
(PID.TID 0000.0001) %MON ke_mean                      =   2.4012513388679E-08
(PID.TID 0000.0001) %MON ke_vol                       =   4.2725283336967E+12
(PID.TID 0000.0001) // =======================================================
(PID.TID 0000.0001) // End MONITOR dynamic field statistics
(PID.TID 0000.0001) // =======================================================
(PID.TID 0000.0001) // =======================================================
(PID.TID 0000.0001) // Begin OBCS MONITOR field statistics
(PID.TID 0000.0001) // =======================================================
(PID.TID 0000.0001) %MON obc_N_vVel_max               =   1.4732188026234E-05
(PID.TID 0000.0001) %MON obc_N_vVel_min               =   1.4732188026233E-05
(PID.TID 0000.0001) %MON obc_N_vVel_mean              =   1.4732188026233E-05
(PID.TID 0000.0001) %MON obc_N_vVel_sd                =   3.8385094322016E-12
(PID.TID 0000.0001) %MON obc_N_vVel_Int               =   9.7232440973139E+02
(PID.TID 0000.0001) // =======================================================
(PID.TID 0000.0001) // End OBCS MONITOR field statistics
(PID.TID 0000.0001) // =======================================================
 cg2d: Sum(rhs),rhsMax =   4.52047282435545E+00  2.99884793981398E+02
(PID.TID 0000.0001)      cg2d_init_res =   6.46243716555012E-06
(PID.TID 0000.0001)      cg2d_iters(min,last) =      -1      75
(PID.TID 0000.0001)      cg2d_last_res =   9.79032916213621E-12
(PID.TID 0000.0001) // =======================================================
(PID.TID 0000.0001) // Begin MONITOR dynamic field statistics
(PID.TID 0000.0001) // =======================================================
(PID.TID 0000.0001) %MON time_tsnumber                =                   400
(PID.TID 0000.0001) %MON time_secondsf                =   4.0000000000000E+04
(PID.TID 0000.0001) %MON dynstat_eta_max              =   5.7944213917392E+00
(PID.TID 0000.0001) %MON dynstat_eta_min              =  -1.4197692945294E+01
(PID.TID 0000.0001) %MON dynstat_eta_mean             =  -2.5104093733895E+00
(PID.TID 0000.0001) %MON dynstat_eta_sd               =   4.9521530974929E+00
(PID.TID 0000.0001) %MON dynstat_eta_del2             =   2.0714076483753E-01
(PID.TID 0000.0001) %MON dynstat_uvel_max             =   2.0010493020079E-03
(PID.TID 0000.0001) %MON dynstat_uvel_min             =  -3.7548059152836E-03
(PID.TID 0000.0001) %MON dynstat_uvel_mean            =  -1.1697719074372E-07
(PID.TID 0000.0001) %MON dynstat_uvel_sd              =   1.5725455334728E-04
(PID.TID 0000.0001) %MON dynstat_uvel_del2            =   3.0615580464642E-07
(PID.TID 0000.0001) %MON dynstat_vvel_max             =   4.3810634122785E-03
(PID.TID 0000.0001) %MON dynstat_vvel_min             =  -2.3222537712115E-03
(PID.TID 0000.0001) %MON dynstat_vvel_mean            =   1.4956321070607E-05
(PID.TID 0000.0001) %MON dynstat_vvel_sd              =   1.5402623935715E-04
(PID.TID 0000.0001) %MON dynstat_vvel_del2            =   3.8798927039081E-07
(PID.TID 0000.0001) %MON dynstat_wvel_max             =   1.3785567777659E-04
(PID.TID 0000.0001) %MON dynstat_wvel_min             =  -1.4153339869482E-04
(PID.TID 0000.0001) %MON dynstat_wvel_mean            =   6.5431926047038E-09
(PID.TID 0000.0001) %MON dynstat_wvel_sd              =   2.8272220992139E-05
(PID.TID 0000.0001) %MON dynstat_wvel_del2            =   1.2952487150470E-07
(PID.TID 0000.0001) %MON dynstat_theta_max            =   1.2000000000000E+00
(PID.TID 0000.0001) %MON dynstat_theta_min            =  -1.0000000000000E+00
(PID.TID 0000.0001) %MON dynstat_theta_mean           =   5.6905356132379E-01
(PID.TID 0000.0001) %MON dynstat_theta_sd             =   8.6855779604430E-01
(PID.TID 0000.0001) %MON dynstat_theta_del2           =   1.0483631326579E-06
(PID.TID 0000.0001) %MON dynstat_salt_max             =   3.4700000000000E+01
(PID.TID 0000.0001) %MON dynstat_salt_min             =   3.4000000000000E+01
(PID.TID 0000.0001) %MON dynstat_salt_mean            =   3.4499235562038E+01
(PID.TID 0000.0001) %MON dynstat_salt_sd              =   2.7635694809372E-01
(PID.TID 0000.0001) %MON dynstat_salt_del2            =   3.6520643174983E-07
(PID.TID 0000.0001) %MON advcfl_uvel_max              =   3.7548059152836E-04
(PID.TID 0000.0001) %MON advcfl_vvel_max              =   4.3810634122785E-04
(PID.TID 0000.0001) %MON advcfl_wvel_max              =   7.0766699347410E-04
(PID.TID 0000.0001) %MON advcfl_W_hf_max              =   7.0766699347410E-04
(PID.TID 0000.0001) %MON pe_b_mean                    =  -8.3176571431229E-01
(PID.TID 0000.0001) %MON ke_max                       =   8.5212264347820E-06
(PID.TID 0000.0001) %MON ke_mean                      =   2.4091539304798E-08
(PID.TID 0000.0001) %MON ke_vol                       =   4.2725282509870E+12
(PID.TID 0000.0001) // =======================================================
(PID.TID 0000.0001) // End MONITOR dynamic field statistics
(PID.TID 0000.0001) // =======================================================
(PID.TID 0000.0001) // =======================================================
(PID.TID 0000.0001) // Begin OBCS MONITOR field statistics
(PID.TID 0000.0001) // =======================================================
(PID.TID 0000.0001) %MON obc_N_vVel_max               =   1.4728292548097E-05
(PID.TID 0000.0001) %MON obc_N_vVel_min               =   1.4728292548096E-05
(PID.TID 0000.0001) %MON obc_N_vVel_mean              =   1.4728292548097E-05
(PID.TID 0000.0001) %MON obc_N_vVel_sd                =   2.2794140085993E-12
(PID.TID 0000.0001) %MON obc_N_vVel_Int               =   9.7206730817437E+02
(PID.TID 0000.0001) // =======================================================
(PID.TID 0000.0001) // End OBCS MONITOR field statistics
(PID.TID 0000.0001) // =======================================================
 cg2d: Sum(rhs),rhsMax =   4.52049671517560E+00  2.99884870635873E+02
(PID.TID 0000.0001)      cg2d_init_res =   6.46304281557708E-06
(PID.TID 0000.0001)      cg2d_iters(min,last) =      -1      75
(PID.TID 0000.0001)      cg2d_last_res =   9.81068183882738E-12
(PID.TID 0000.0001) // =======================================================
(PID.TID 0000.0001) // Begin MONITOR dynamic field statistics
(PID.TID 0000.0001) // =======================================================
(PID.TID 0000.0001) %MON time_tsnumber                =                   401
(PID.TID 0000.0001) %MON time_secondsf                =   4.0100000000000E+04
(PID.TID 0000.0001) %MON dynstat_eta_max              =   5.7943880199810E+00
(PID.TID 0000.0001) %MON dynstat_eta_min              =  -1.4197716398272E+01
(PID.TID 0000.0001) %MON dynstat_eta_mean             =  -2.5104232826673E+00
(PID.TID 0000.0001) %MON dynstat_eta_sd               =   4.9521576785715E+00
(PID.TID 0000.0001) %MON dynstat_eta_del2             =   2.0714077085663E-01
(PID.TID 0000.0001) %MON dynstat_uvel_max             =   1.9979245824852E-03
(PID.TID 0000.0001) %MON dynstat_uvel_min             =  -3.7577896647247E-03
(PID.TID 0000.0001) %MON dynstat_uvel_mean            =  -1.1699953170327E-07
(PID.TID 0000.0001) %MON dynstat_uvel_sd              =   1.5767690685813E-04
(PID.TID 0000.0001) %MON dynstat_uvel_del2            =   3.0626700114887E-07
(PID.TID 0000.0001) %MON dynstat_vvel_max             =   4.3828856130466E-03
(PID.TID 0000.0001) %MON dynstat_vvel_min             =  -2.3132551113196E-03
(PID.TID 0000.0001) %MON dynstat_vvel_mean            =   1.4951977398870E-05
(PID.TID 0000.0001) %MON dynstat_vvel_sd              =   1.5411328716445E-04
(PID.TID 0000.0001) %MON dynstat_vvel_del2            =   3.8761160498586E-07
(PID.TID 0000.0001) %MON dynstat_wvel_max             =   1.3775129904190E-04
(PID.TID 0000.0001) %MON dynstat_wvel_min             =  -1.4268138605741E-04
(PID.TID 0000.0001) %MON dynstat_wvel_mean            =   6.5388639430309E-09
(PID.TID 0000.0001) %MON dynstat_wvel_sd              =   2.8231680739104E-05
(PID.TID 0000.0001) %MON dynstat_wvel_del2            =   1.2928981708269E-07
(PID.TID 0000.0001) %MON dynstat_theta_max            =   1.2000000000000E+00
(PID.TID 0000.0001) %MON dynstat_theta_min            =  -1.0000000000000E+00
(PID.TID 0000.0001) %MON dynstat_theta_mean           =   5.6905326996329E-01
(PID.TID 0000.0001) %MON dynstat_theta_sd             =   8.6855764679693E-01
(PID.TID 0000.0001) %MON dynstat_theta_del2           =   1.0474370322650E-06
(PID.TID 0000.0001) %MON dynstat_salt_max             =   3.4700000000000E+01
(PID.TID 0000.0001) %MON dynstat_salt_min             =   3.4000000000000E+01
(PID.TID 0000.0001) %MON dynstat_salt_mean            =   3.4499235445715E+01
(PID.TID 0000.0001) %MON dynstat_salt_sd              =   2.7635689338334E-01
(PID.TID 0000.0001) %MON dynstat_salt_del2            =   3.6510114293955E-07
(PID.TID 0000.0001) %MON advcfl_uvel_max              =   3.7577896647247E-04
(PID.TID 0000.0001) %MON advcfl_vvel_max              =   4.3828856130466E-04
(PID.TID 0000.0001) %MON advcfl_wvel_max              =   7.1340693028706E-04
(PID.TID 0000.0001) %MON advcfl_W_hf_max              =   7.1340693028706E-04
(PID.TID 0000.0001) %MON pe_b_mean                    =  -8.3176971509422E-01
(PID.TID 0000.0001) %MON ke_max                       =   8.5071021426379E-06
(PID.TID 0000.0001) %MON ke_mean                      =   2.4170073648862E-08
(PID.TID 0000.0001) %MON ke_vol                       =   4.2725281683221E+12
(PID.TID 0000.0001) // =======================================================
(PID.TID 0000.0001) // End MONITOR dynamic field statistics
(PID.TID 0000.0001) // =======================================================
(PID.TID 0000.0001) // =======================================================
(PID.TID 0000.0001) // Begin OBCS MONITOR field statistics
(PID.TID 0000.0001) // =======================================================
(PID.TID 0000.0001) %MON obc_N_vVel_max               =   1.4724550073322E-05
(PID.TID 0000.0001) %MON obc_N_vVel_min               =   1.4724550073322E-05
(PID.TID 0000.0001) %MON obc_N_vVel_mean              =   1.4724550073322E-05
(PID.TID 0000.0001) %MON obc_N_vVel_sd                =  -8.8921915849450E-24
(PID.TID 0000.0001) %MON obc_N_vVel_Int               =   9.7182030483925E+02
(PID.TID 0000.0001) // =======================================================
(PID.TID 0000.0001) // End OBCS MONITOR field statistics
(PID.TID 0000.0001) // =======================================================
 cg2d: Sum(rhs),rhsMax =   4.52052059219148E+00  2.99884947360377E+02
(PID.TID 0000.0001)      cg2d_init_res =   6.46396928546442E-06
(PID.TID 0000.0001)      cg2d_iters(min,last) =      -1      75
(PID.TID 0000.0001)      cg2d_last_res =   9.84900650641919E-12
(PID.TID 0000.0001) // =======================================================
(PID.TID 0000.0001) // Begin MONITOR dynamic field statistics
(PID.TID 0000.0001) // =======================================================
(PID.TID 0000.0001) %MON time_tsnumber                =                   402
(PID.TID 0000.0001) %MON time_secondsf                =   4.0200000000000E+04
(PID.TID 0000.0001) %MON dynstat_eta_max              =   5.7943546547312E+00
(PID.TID 0000.0001) %MON dynstat_eta_min              =  -1.4197739846116E+01
(PID.TID 0000.0001) %MON dynstat_eta_mean             =  -2.5104371848719E+00
(PID.TID 0000.0001) %MON dynstat_eta_sd               =   4.9521622580895E+00
(PID.TID 0000.0001) %MON dynstat_eta_del2             =   2.0714077691535E-01
(PID.TID 0000.0001) %MON dynstat_uvel_max             =   1.9947335010091E-03
(PID.TID 0000.0001) %MON dynstat_uvel_min             =  -3.7606888580018E-03
(PID.TID 0000.0001) %MON dynstat_uvel_mean            =  -1.1703032460373E-07
(PID.TID 0000.0001) %MON dynstat_uvel_sd              =   1.5809873051769E-04
(PID.TID 0000.0001) %MON dynstat_uvel_del2            =   3.0638287409040E-07
(PID.TID 0000.0001) %MON dynstat_vvel_max             =   4.3846140873960E-03
(PID.TID 0000.0001) %MON dynstat_vvel_min             =  -2.3042405674865E-03
(PID.TID 0000.0001) %MON dynstat_vvel_mean            =   1.4948073579767E-05
(PID.TID 0000.0001) %MON dynstat_vvel_sd              =   1.5419581536534E-04
(PID.TID 0000.0001) %MON dynstat_vvel_del2            =   3.8723381756073E-07
(PID.TID 0000.0001) %MON dynstat_wvel_max             =   1.3608062680001E-04
(PID.TID 0000.0001) %MON dynstat_wvel_min             =  -1.4291292461766E-04
(PID.TID 0000.0001) %MON dynstat_wvel_mean            =   6.5362196838518E-09
(PID.TID 0000.0001) %MON dynstat_wvel_sd              =   2.8190970525804E-05
(PID.TID 0000.0001) %MON dynstat_wvel_del2            =   1.2904693163296E-07
(PID.TID 0000.0001) %MON dynstat_theta_max            =   1.2000000000000E+00
(PID.TID 0000.0001) %MON dynstat_theta_min            =  -1.0000000000000E+00
(PID.TID 0000.0001) %MON dynstat_theta_mean           =   5.6905297807470E-01
(PID.TID 0000.0001) %MON dynstat_theta_sd             =   8.6855749743962E-01
(PID.TID 0000.0001) %MON dynstat_theta_del2           =   1.0465462787703E-06
(PID.TID 0000.0001) %MON dynstat_salt_max             =   3.4700000000000E+01
(PID.TID 0000.0001) %MON dynstat_salt_min             =   3.4000000000000E+01
(PID.TID 0000.0001) %MON dynstat_salt_mean            =   3.4499235329192E+01
(PID.TID 0000.0001) %MON dynstat_salt_sd              =   2.7635683861826E-01
(PID.TID 0000.0001) %MON dynstat_salt_del2            =   3.6500667176288E-07
(PID.TID 0000.0001) %MON advcfl_uvel_max              =   3.7606888580018E-04
(PID.TID 0000.0001) %MON advcfl_vvel_max              =   4.3846140873960E-04
(PID.TID 0000.0001) %MON advcfl_wvel_max              =   7.1456462308830E-04
(PID.TID 0000.0001) %MON advcfl_W_hf_max              =   7.1456462308830E-04
(PID.TID 0000.0001) %MON pe_b_mean                    =  -8.3177371380116E-01
(PID.TID 0000.0001) %MON ke_max                       =   8.4927641349996E-06
(PID.TID 0000.0001) %MON ke_mean                      =   2.4248018017706E-08
(PID.TID 0000.0001) %MON ke_vol                       =   4.2725280857010E+12
(PID.TID 0000.0001) // =======================================================
(PID.TID 0000.0001) // End MONITOR dynamic field statistics
(PID.TID 0000.0001) // =======================================================
(PID.TID 0000.0001) // =======================================================
(PID.TID 0000.0001) // Begin OBCS MONITOR field statistics
(PID.TID 0000.0001) // =======================================================
(PID.TID 0000.0001) %MON obc_N_vVel_max               =   1.4721086935699E-05
(PID.TID 0000.0001) %MON obc_N_vVel_min               =   1.4721086935699E-05
(PID.TID 0000.0001) %MON obc_N_vVel_mean              =   1.4721086935699E-05
(PID.TID 0000.0001) %MON obc_N_vVel_sd                =  -8.2976555196726E-24
(PID.TID 0000.0001) %MON obc_N_vVel_Int               =   9.7159173775616E+02
(PID.TID 0000.0001) // =======================================================
(PID.TID 0000.0001) // End OBCS MONITOR field statistics
(PID.TID 0000.0001) // =======================================================
 cg2d: Sum(rhs),rhsMax =   4.52054445619617E+00  2.99885024154135E+02
(PID.TID 0000.0001)      cg2d_init_res =   6.46488780930430E-06
(PID.TID 0000.0001)      cg2d_iters(min,last) =      -1      75
(PID.TID 0000.0001)      cg2d_last_res =   9.90278754051414E-12
(PID.TID 0000.0001) // =======================================================
(PID.TID 0000.0001) // Begin MONITOR dynamic field statistics
(PID.TID 0000.0001) // =======================================================
(PID.TID 0000.0001) %MON time_tsnumber                =                   403
(PID.TID 0000.0001) %MON time_secondsf                =   4.0300000000000E+04
(PID.TID 0000.0001) %MON dynstat_eta_max              =   5.7943212955567E+00
(PID.TID 0000.0001) %MON dynstat_eta_min              =  -1.4197763289775E+01
(PID.TID 0000.0001) %MON dynstat_eta_mean             =  -2.5104510804375E+00
(PID.TID 0000.0001) %MON dynstat_eta_sd               =   4.9521668362822E+00
(PID.TID 0000.0001) %MON dynstat_eta_del2             =   2.0714078301372E-01
(PID.TID 0000.0001) %MON dynstat_uvel_max             =   1.9914763069813E-03
(PID.TID 0000.0001) %MON dynstat_uvel_min             =  -3.7635035593885E-03
(PID.TID 0000.0001) %MON dynstat_uvel_mean            =  -1.1706868858816E-07
(PID.TID 0000.0001) %MON dynstat_uvel_sd              =   1.5852000408494E-04
(PID.TID 0000.0001) %MON dynstat_uvel_del2            =   3.0650339092689E-07
(PID.TID 0000.0001) %MON dynstat_vvel_max             =   4.3862493662852E-03
(PID.TID 0000.0001) %MON dynstat_vvel_min             =  -2.2952104476293E-03
(PID.TID 0000.0001) %MON dynstat_vvel_mean            =   1.4944734988926E-05
(PID.TID 0000.0001) %MON dynstat_vvel_sd              =   1.5427322661034E-04
(PID.TID 0000.0001) %MON dynstat_vvel_del2            =   3.8684903087146E-07
(PID.TID 0000.0001) %MON dynstat_wvel_max             =   1.3284689043537E-04
(PID.TID 0000.0001) %MON dynstat_wvel_min             =  -1.4226947879875E-04
(PID.TID 0000.0001) %MON dynstat_wvel_mean            =   6.5353134448691E-09
(PID.TID 0000.0001) %MON dynstat_wvel_sd              =   2.8149440140454E-05
(PID.TID 0000.0001) %MON dynstat_wvel_del2            =   1.2878720007460E-07
(PID.TID 0000.0001) %MON dynstat_theta_max            =   1.2000000000000E+00
(PID.TID 0000.0001) %MON dynstat_theta_min            =  -1.0000000000000E+00
(PID.TID 0000.0001) %MON dynstat_theta_mean           =   5.6905268565838E-01
(PID.TID 0000.0001) %MON dynstat_theta_sd             =   8.6855734793747E-01
(PID.TID 0000.0001) %MON dynstat_theta_del2           =   1.0456996452068E-06
(PID.TID 0000.0001) %MON dynstat_salt_max             =   3.4700000000000E+01
(PID.TID 0000.0001) %MON dynstat_salt_min             =   3.4000000000000E+01
(PID.TID 0000.0001) %MON dynstat_salt_mean            =   3.4499235212469E+01
(PID.TID 0000.0001) %MON dynstat_salt_sd              =   2.7635678378735E-01
(PID.TID 0000.0001) %MON dynstat_salt_del2            =   3.6492546564291E-07
(PID.TID 0000.0001) %MON advcfl_uvel_max              =   3.7635035593885E-04
(PID.TID 0000.0001) %MON advcfl_vvel_max              =   4.3862493662852E-04
(PID.TID 0000.0001) %MON advcfl_wvel_max              =   7.1134739399373E-04
(PID.TID 0000.0001) %MON advcfl_W_hf_max              =   7.1134739399373E-04
(PID.TID 0000.0001) %MON pe_b_mean                    =  -8.3177771058014E-01
(PID.TID 0000.0001) %MON ke_max                       =   8.4782145378091E-06
(PID.TID 0000.0001) %MON ke_mean                      =   2.4325277198384E-08
(PID.TID 0000.0001) %MON ke_vol                       =   4.2725280031219E+12
(PID.TID 0000.0001) // =======================================================
(PID.TID 0000.0001) // End MONITOR dynamic field statistics
(PID.TID 0000.0001) // =======================================================
(PID.TID 0000.0001) // =======================================================
(PID.TID 0000.0001) // Begin OBCS MONITOR field statistics
(PID.TID 0000.0001) // =======================================================
(PID.TID 0000.0001) %MON obc_N_vVel_max               =   1.4718016767547E-05
(PID.TID 0000.0001) %MON obc_N_vVel_min               =   1.4718016767547E-05
(PID.TID 0000.0001) %MON obc_N_vVel_mean              =   1.4718016767547E-05
(PID.TID 0000.0001) %MON obc_N_vVel_sd                =   4.6625465653073E-12
(PID.TID 0000.0001) %MON obc_N_vVel_Int               =   9.7138910665807E+02
(PID.TID 0000.0001) // =======================================================
(PID.TID 0000.0001) // End OBCS MONITOR field statistics
(PID.TID 0000.0001) // =======================================================
 cg2d: Sum(rhs),rhsMax =   4.52056830820535E+00  2.99885101014410E+02
(PID.TID 0000.0001)      cg2d_init_res =   6.46547629876666E-06
(PID.TID 0000.0001)      cg2d_iters(min,last) =      -1      75
(PID.TID 0000.0001)      cg2d_last_res =   9.96352214721558E-12
(PID.TID 0000.0001) // =======================================================
(PID.TID 0000.0001) // Begin MONITOR dynamic field statistics
(PID.TID 0000.0001) // =======================================================
(PID.TID 0000.0001) %MON time_tsnumber                =                   404
(PID.TID 0000.0001) %MON time_secondsf                =   4.0400000000000E+04
(PID.TID 0000.0001) %MON dynstat_eta_max              =   5.7942879419668E+00
(PID.TID 0000.0001) %MON dynstat_eta_min              =  -1.4197786730340E+01
(PID.TID 0000.0001) %MON dynstat_eta_mean             =  -2.5104649699050E+00
(PID.TID 0000.0001) %MON dynstat_eta_sd               =   4.9521714133956E+00
(PID.TID 0000.0001) %MON dynstat_eta_del2             =   2.0714078915106E-01
(PID.TID 0000.0001) %MON dynstat_uvel_max             =   1.9881532527913E-03
(PID.TID 0000.0001) %MON dynstat_uvel_min             =  -3.7662338373370E-03
(PID.TID 0000.0001) %MON dynstat_uvel_mean            =  -1.1711351164781E-07
(PID.TID 0000.0001) %MON dynstat_uvel_sd              =   1.5894070671775E-04
(PID.TID 0000.0001) %MON dynstat_uvel_del2            =   3.0662851991774E-07
(PID.TID 0000.0001) %MON dynstat_vvel_max             =   4.3877919588899E-03
(PID.TID 0000.0001) %MON dynstat_vvel_min             =  -2.2861650878792E-03
(PID.TID 0000.0001) %MON dynstat_vvel_mean            =   1.4942064859477E-05
(PID.TID 0000.0001) %MON dynstat_vvel_sd              =   1.5434498117997E-04
(PID.TID 0000.0001) %MON dynstat_vvel_del2            =   3.8645238603648E-07
(PID.TID 0000.0001) %MON dynstat_wvel_max             =   1.3134517692557E-04
(PID.TID 0000.0001) %MON dynstat_wvel_min             =  -1.4514773341506E-04
(PID.TID 0000.0001) %MON dynstat_wvel_mean            =   6.5361394612541E-09
(PID.TID 0000.0001) %MON dynstat_wvel_sd              =   2.8106586645186E-05
(PID.TID 0000.0001) %MON dynstat_wvel_del2            =   1.2850441146012E-07
(PID.TID 0000.0001) %MON dynstat_theta_max            =   1.2000000000000E+00
(PID.TID 0000.0001) %MON dynstat_theta_min            =  -1.0000000000000E+00
(PID.TID 0000.0001) %MON dynstat_theta_mean           =   5.6905239271498E-01
(PID.TID 0000.0001) %MON dynstat_theta_sd             =   8.6855719820197E-01
(PID.TID 0000.0001) %MON dynstat_theta_del2           =   1.0449027542251E-06
(PID.TID 0000.0001) %MON dynstat_salt_max             =   3.4700000000000E+01
(PID.TID 0000.0001) %MON dynstat_salt_min             =   3.4000000000000E+01
(PID.TID 0000.0001) %MON dynstat_salt_mean            =   3.4499235095547E+01
(PID.TID 0000.0001) %MON dynstat_salt_sd              =   2.7635672886226E-01
(PID.TID 0000.0001) %MON dynstat_salt_del2            =   3.6485920992526E-07
(PID.TID 0000.0001) %MON advcfl_uvel_max              =   3.7662338373370E-04
(PID.TID 0000.0001) %MON advcfl_vvel_max              =   4.3877919588899E-04
(PID.TID 0000.0001) %MON advcfl_wvel_max              =   7.2573866707528E-04
(PID.TID 0000.0001) %MON advcfl_W_hf_max              =   7.2573866707528E-04
(PID.TID 0000.0001) %MON pe_b_mean                    =  -8.3178170560156E-01
(PID.TID 0000.0001) %MON ke_max                       =   8.4634554014162E-06
(PID.TID 0000.0001) %MON ke_mean                      =   2.4401764304016E-08
(PID.TID 0000.0001) %MON ke_vol                       =   4.2725279205822E+12
(PID.TID 0000.0001) // =======================================================
(PID.TID 0000.0001) // End MONITOR dynamic field statistics
(PID.TID 0000.0001) // =======================================================
(PID.TID 0000.0001) // =======================================================
(PID.TID 0000.0001) // Begin OBCS MONITOR field statistics
(PID.TID 0000.0001) // =======================================================
(PID.TID 0000.0001) %MON obc_N_vVel_max               =   1.4715437033700E-05
(PID.TID 0000.0001) %MON obc_N_vVel_min               =   1.4715437033700E-05
(PID.TID 0000.0001) %MON obc_N_vVel_mean              =   1.4715437033700E-05
(PID.TID 0000.0001) %MON obc_N_vVel_sd                =  -2.6883369907973E-24
(PID.TID 0000.0001) %MON obc_N_vVel_Int               =   9.7121884422423E+02
(PID.TID 0000.0001) // =======================================================
(PID.TID 0000.0001) // End OBCS MONITOR field statistics
(PID.TID 0000.0001) // =======================================================
 cg2d: Sum(rhs),rhsMax =   4.52059214940944E+00  2.99885177936584E+02
(PID.TID 0000.0001)      cg2d_init_res =   6.46548039980474E-06
(PID.TID 0000.0001)      cg2d_iters(min,last) =      -1      77
(PID.TID 0000.0001)      cg2d_last_res =   8.57750371990487E-12
(PID.TID 0000.0001) // =======================================================
(PID.TID 0000.0001) // Begin MONITOR dynamic field statistics
(PID.TID 0000.0001) // =======================================================
(PID.TID 0000.0001) %MON time_tsnumber                =                   405
(PID.TID 0000.0001) %MON time_secondsf                =   4.0500000000000E+04
(PID.TID 0000.0001) %MON dynstat_eta_max              =   5.7942545929516E+00
(PID.TID 0000.0001) %MON dynstat_eta_min              =  -1.4197810168670E+01
(PID.TID 0000.0001) %MON dynstat_eta_mean             =  -2.5104788538970E+00
(PID.TID 0000.0001) %MON dynstat_eta_sd               =   4.9521759897128E+00
(PID.TID 0000.0001) %MON dynstat_eta_del2             =   2.0714079532839E-01
(PID.TID 0000.0001) %MON dynstat_uvel_max             =   1.9847645993204E-03
(PID.TID 0000.0001) %MON dynstat_uvel_min             =  -3.7688797623767E-03
(PID.TID 0000.0001) %MON dynstat_uvel_mean            =  -1.1716474817917E-07
(PID.TID 0000.0001) %MON dynstat_uvel_sd              =   1.5936081693158E-04
(PID.TID 0000.0001) %MON dynstat_uvel_del2            =   3.0675823024063E-07
(PID.TID 0000.0001) %MON dynstat_vvel_max             =   4.3892423655407E-03
(PID.TID 0000.0001) %MON dynstat_vvel_min             =  -2.2885448159826E-03
(PID.TID 0000.0001) %MON dynstat_vvel_mean            =   1.4940141365989E-05
(PID.TID 0000.0001) %MON dynstat_vvel_sd              =   1.5441062212182E-04
(PID.TID 0000.0001) %MON dynstat_vvel_del2            =   3.8604161818946E-07
(PID.TID 0000.0001) %MON dynstat_wvel_max             =   1.3615753912394E-04
(PID.TID 0000.0001) %MON dynstat_wvel_min             =  -1.4607323002818E-04
(PID.TID 0000.0001) %MON dynstat_wvel_mean            =   6.5386332369582E-09
(PID.TID 0000.0001) %MON dynstat_wvel_sd              =   2.8062104236759E-05
(PID.TID 0000.0001) %MON dynstat_wvel_del2            =   1.2819593582888E-07
(PID.TID 0000.0001) %MON dynstat_theta_max            =   1.2000000000000E+00
(PID.TID 0000.0001) %MON dynstat_theta_min            =  -1.0000000000000E+00
(PID.TID 0000.0001) %MON dynstat_theta_mean           =   5.6905209924490E-01
(PID.TID 0000.0001) %MON dynstat_theta_sd             =   8.6855704821830E-01
(PID.TID 0000.0001) %MON dynstat_theta_del2           =   1.0441581146651E-06
(PID.TID 0000.0001) %MON dynstat_salt_max             =   3.4700000000000E+01
(PID.TID 0000.0001) %MON dynstat_salt_min             =   3.4000000000000E+01
(PID.TID 0000.0001) %MON dynstat_salt_mean            =   3.4499234978426E+01
(PID.TID 0000.0001) %MON dynstat_salt_sd              =   2.7635667383847E-01
(PID.TID 0000.0001) %MON dynstat_salt_del2            =   3.6480864293677E-07
(PID.TID 0000.0001) %MON advcfl_uvel_max              =   3.7688797623767E-04
(PID.TID 0000.0001) %MON advcfl_vvel_max              =   4.3892423655407E-04
(PID.TID 0000.0001) %MON advcfl_wvel_max              =   7.3036615014088E-04
(PID.TID 0000.0001) %MON advcfl_W_hf_max              =   7.3036615014088E-04
(PID.TID 0000.0001) %MON pe_b_mean                    =  -8.3178569905271E-01
(PID.TID 0000.0001) %MON ke_max                       =   8.4484886394578E-06
(PID.TID 0000.0001) %MON ke_mean                      =   2.4477404656050E-08
(PID.TID 0000.0001) %MON ke_vol                       =   4.2725278380788E+12
(PID.TID 0000.0001) // =======================================================
(PID.TID 0000.0001) // End MONITOR dynamic field statistics
(PID.TID 0000.0001) // =======================================================
(PID.TID 0000.0001) // =======================================================
(PID.TID 0000.0001) // Begin OBCS MONITOR field statistics
(PID.TID 0000.0001) // =======================================================
(PID.TID 0000.0001) %MON obc_N_vVel_max               =   1.4713426150025E-05
(PID.TID 0000.0001) %MON obc_N_vVel_min               =   1.4713426150024E-05
(PID.TID 0000.0001) %MON obc_N_vVel_mean              =   1.4713426150024E-05
(PID.TID 0000.0001) %MON obc_N_vVel_sd                =   4.1678283150357E-12
(PID.TID 0000.0001) %MON obc_N_vVel_Int               =   9.7108612590161E+02
(PID.TID 0000.0001) // =======================================================
(PID.TID 0000.0001) // End OBCS MONITOR field statistics
(PID.TID 0000.0001) // =======================================================
 cg2d: Sum(rhs),rhsMax =   4.52061598114464E+00  2.99885254914508E+02
(PID.TID 0000.0001)      cg2d_init_res =   6.46481665149363E-06
(PID.TID 0000.0001)      cg2d_iters(min,last) =      -1      77
(PID.TID 0000.0001)      cg2d_last_res =   8.58053920077885E-12
(PID.TID 0000.0001) // =======================================================
(PID.TID 0000.0001) // Begin MONITOR dynamic field statistics
(PID.TID 0000.0001) // =======================================================
(PID.TID 0000.0001) %MON time_tsnumber                =                   406
(PID.TID 0000.0001) %MON time_secondsf                =   4.0600000000000E+04
(PID.TID 0000.0001) %MON dynstat_eta_max              =   5.7942212487825E+00
(PID.TID 0000.0001) %MON dynstat_eta_min              =  -1.4197833606600E+01
(PID.TID 0000.0001) %MON dynstat_eta_mean             =  -2.5104927331040E+00
(PID.TID 0000.0001) %MON dynstat_eta_sd               =   4.9521805654828E+00
(PID.TID 0000.0001) %MON dynstat_eta_del2             =   2.0714080154422E-01
(PID.TID 0000.0001) %MON dynstat_uvel_max             =   1.9813105895806E-03
(PID.TID 0000.0001) %MON dynstat_uvel_min             =  -3.7714414161376E-03
(PID.TID 0000.0001) %MON dynstat_uvel_mean            =  -1.1721888262475E-07
(PID.TID 0000.0001) %MON dynstat_uvel_sd              =   1.5978031274328E-04
(PID.TID 0000.0001) %MON dynstat_uvel_del2            =   3.0689249253069E-07
(PID.TID 0000.0001) %MON dynstat_vvel_max             =   4.3906009999137E-03
(PID.TID 0000.0001) %MON dynstat_vvel_min             =  -2.2910728503778E-03
(PID.TID 0000.0001) %MON dynstat_vvel_mean            =   1.4939015476681E-05
(PID.TID 0000.0001) %MON dynstat_vvel_sd              =   1.5446978952097E-04
(PID.TID 0000.0001) %MON dynstat_vvel_del2            =   3.8561727481014E-07
(PID.TID 0000.0001) %MON dynstat_wvel_max             =   1.3876815258689E-04
(PID.TID 0000.0001) %MON dynstat_wvel_min             =  -1.4502438725622E-04
(PID.TID 0000.0001) %MON dynstat_wvel_mean            =   6.5426758319413E-09
(PID.TID 0000.0001) %MON dynstat_wvel_sd              =   2.8015903492641E-05
(PID.TID 0000.0001) %MON dynstat_wvel_del2            =   1.2786300879257E-07
(PID.TID 0000.0001) %MON dynstat_theta_max            =   1.2000000000000E+00
(PID.TID 0000.0001) %MON dynstat_theta_min            =  -1.0000000000000E+00
(PID.TID 0000.0001) %MON dynstat_theta_mean           =   5.6905180524952E-01
(PID.TID 0000.0001) %MON dynstat_theta_sd             =   8.6855689800267E-01
(PID.TID 0000.0001) %MON dynstat_theta_del2           =   1.0434652126954E-06
(PID.TID 0000.0001) %MON dynstat_salt_max             =   3.4700000000000E+01
(PID.TID 0000.0001) %MON dynstat_salt_min             =   3.4000000000000E+01
(PID.TID 0000.0001) %MON dynstat_salt_mean            =   3.4499234861105E+01
(PID.TID 0000.0001) %MON dynstat_salt_sd              =   2.7635661872102E-01
(PID.TID 0000.0001) %MON dynstat_salt_del2            =   3.6477361095639E-07
(PID.TID 0000.0001) %MON advcfl_uvel_max              =   3.7714414161376E-04
(PID.TID 0000.0001) %MON advcfl_vvel_max              =   4.3906009999137E-04
(PID.TID 0000.0001) %MON advcfl_wvel_max              =   7.2512193628111E-04
(PID.TID 0000.0001) %MON advcfl_W_hf_max              =   7.2512193628111E-04
(PID.TID 0000.0001) %MON pe_b_mean                    =  -8.3178969113341E-01
(PID.TID 0000.0001) %MON ke_max                       =   8.4333162701479E-06
(PID.TID 0000.0001) %MON ke_mean                      =   2.4552138035227E-08
(PID.TID 0000.0001) %MON ke_vol                       =   4.2725277556079E+12
(PID.TID 0000.0001) // =======================================================
(PID.TID 0000.0001) // End MONITOR dynamic field statistics
(PID.TID 0000.0001) // =======================================================
(PID.TID 0000.0001) // =======================================================
(PID.TID 0000.0001) // Begin OBCS MONITOR field statistics
(PID.TID 0000.0001) // =======================================================
(PID.TID 0000.0001) %MON obc_N_vVel_max               =   1.4712041587038E-05
(PID.TID 0000.0001) %MON obc_N_vVel_min               =   1.4712041587038E-05
(PID.TID 0000.0001) %MON obc_N_vVel_mean              =   1.4712041587038E-05
(PID.TID 0000.0001) %MON obc_N_vVel_sd                =   2.7520669475303E-12
(PID.TID 0000.0001) %MON obc_N_vVel_Int               =   9.7099474474452E+02
(PID.TID 0000.0001) // =======================================================
(PID.TID 0000.0001) // End OBCS MONITOR field statistics
(PID.TID 0000.0001) // =======================================================
 cg2d: Sum(rhs),rhsMax =   4.52063980485656E+00  2.99885331939343E+02
(PID.TID 0000.0001)      cg2d_init_res =   6.46319941877851E-06
(PID.TID 0000.0001)      cg2d_iters(min,last) =      -1      77
(PID.TID 0000.0001)      cg2d_last_res =   8.58818715182366E-12
(PID.TID 0000.0001) // =======================================================
(PID.TID 0000.0001) // Begin MONITOR dynamic field statistics
(PID.TID 0000.0001) // =======================================================
(PID.TID 0000.0001) %MON time_tsnumber                =                   407
(PID.TID 0000.0001) %MON time_secondsf                =   4.0700000000000E+04
(PID.TID 0000.0001) %MON dynstat_eta_max              =   5.7941879086080E+00
(PID.TID 0000.0001) %MON dynstat_eta_min              =  -1.4197857045048E+01
(PID.TID 0000.0001) %MON dynstat_eta_mean             =  -2.5105066082549E+00
(PID.TID 0000.0001) %MON dynstat_eta_sd               =   4.9521851409734E+00
(PID.TID 0000.0001) %MON dynstat_eta_del2             =   2.0714080779962E-01
(PID.TID 0000.0001) %MON dynstat_uvel_max             =   1.9777914958318E-03
(PID.TID 0000.0001) %MON dynstat_uvel_min             =  -3.7739188769120E-03
(PID.TID 0000.0001) %MON dynstat_uvel_mean            =  -1.1727448915939E-07
(PID.TID 0000.0001) %MON dynstat_uvel_sd              =   1.6019917159974E-04
(PID.TID 0000.0001) %MON dynstat_uvel_del2            =   3.0703127902818E-07
(PID.TID 0000.0001) %MON dynstat_vvel_max             =   4.3918683255590E-03
(PID.TID 0000.0001) %MON dynstat_vvel_min             =  -2.2935600241318E-03
(PID.TID 0000.0001) %MON dynstat_vvel_mean            =   1.4938709799367E-05
(PID.TID 0000.0001) %MON dynstat_vvel_sd              =   1.5452222339900E-04
(PID.TID 0000.0001) %MON dynstat_vvel_del2            =   3.8518255496143E-07
(PID.TID 0000.0001) %MON dynstat_wvel_max             =   1.3914188041801E-04
(PID.TID 0000.0001) %MON dynstat_wvel_min             =  -1.4200744577739E-04
(PID.TID 0000.0001) %MON dynstat_wvel_mean            =   6.5481175119068E-09
(PID.TID 0000.0001) %MON dynstat_wvel_sd              =   2.7968101522013E-05
(PID.TID 0000.0001) %MON dynstat_wvel_del2            =   1.2751052114711E-07
(PID.TID 0000.0001) %MON dynstat_theta_max            =   1.2000000000000E+00
(PID.TID 0000.0001) %MON dynstat_theta_min            =  -1.0000000000000E+00
(PID.TID 0000.0001) %MON dynstat_theta_mean           =   5.6905151073075E-01
(PID.TID 0000.0001) %MON dynstat_theta_sd             =   8.6855674759208E-01
(PID.TID 0000.0001) %MON dynstat_theta_del2           =   1.0428206799872E-06
(PID.TID 0000.0001) %MON dynstat_salt_max             =   3.4700000000000E+01
(PID.TID 0000.0001) %MON dynstat_salt_min             =   3.4000000000000E+01
(PID.TID 0000.0001) %MON dynstat_salt_mean            =   3.4499234743585E+01
(PID.TID 0000.0001) %MON dynstat_salt_sd              =   2.7635656352151E-01
(PID.TID 0000.0001) %MON dynstat_salt_del2            =   3.6475314286711E-07
(PID.TID 0000.0001) %MON advcfl_uvel_max              =   3.7739188769120E-04
(PID.TID 0000.0001) %MON advcfl_vvel_max              =   4.3918683255590E-04
(PID.TID 0000.0001) %MON advcfl_wvel_max              =   7.1003722888694E-04
(PID.TID 0000.0001) %MON advcfl_W_hf_max              =   7.1003722888694E-04
(PID.TID 0000.0001) %MON pe_b_mean                    =  -8.3179368204742E-01
(PID.TID 0000.0001) %MON ke_max                       =   8.4179399900788E-06
(PID.TID 0000.0001) %MON ke_mean                      =   2.4625919155232E-08
(PID.TID 0000.0001) %MON ke_vol                       =   4.2725276731654E+12
(PID.TID 0000.0001) // =======================================================
(PID.TID 0000.0001) // End MONITOR dynamic field statistics
(PID.TID 0000.0001) // =======================================================
(PID.TID 0000.0001) // =======================================================
(PID.TID 0000.0001) // Begin OBCS MONITOR field statistics
(PID.TID 0000.0001) // =======================================================
(PID.TID 0000.0001) %MON obc_N_vVel_max               =   1.4711317037270E-05
(PID.TID 0000.0001) %MON obc_N_vVel_min               =   1.4711317037270E-05
(PID.TID 0000.0001) %MON obc_N_vVel_mean              =   1.4711317037270E-05
(PID.TID 0000.0001) %MON obc_N_vVel_sd                =  -1.2614504341434E-23
(PID.TID 0000.0001) %MON obc_N_vVel_Int               =   9.7094692445982E+02
(PID.TID 0000.0001) // =======================================================
(PID.TID 0000.0001) // End OBCS MONITOR field statistics
(PID.TID 0000.0001) // =======================================================
 cg2d: Sum(rhs),rhsMax =   4.52066362201006E+00  2.99885409001826E+02
(PID.TID 0000.0001)      cg2d_init_res =   6.46067480194383E-06
(PID.TID 0000.0001)      cg2d_iters(min,last) =      -1      75
(PID.TID 0000.0001)      cg2d_last_res =   9.99235421265583E-12
(PID.TID 0000.0001) // =======================================================
(PID.TID 0000.0001) // Begin MONITOR dynamic field statistics
(PID.TID 0000.0001) // =======================================================
(PID.TID 0000.0001) %MON time_tsnumber                =                   408
(PID.TID 0000.0001) %MON time_secondsf                =   4.0800000000000E+04
(PID.TID 0000.0001) %MON dynstat_eta_max              =   5.7941545723768E+00
(PID.TID 0000.0001) %MON dynstat_eta_min              =  -1.4197880485534E+01
(PID.TID 0000.0001) %MON dynstat_eta_mean             =  -2.5105204800855E+00
(PID.TID 0000.0001) %MON dynstat_eta_sd               =   4.9521897164079E+00
(PID.TID 0000.0001) %MON dynstat_eta_del2             =   2.0714081409344E-01
(PID.TID 0000.0001) %MON dynstat_uvel_max             =   1.9742075759992E-03
(PID.TID 0000.0001) %MON dynstat_uvel_min             =  -3.7763122279386E-03
(PID.TID 0000.0001) %MON dynstat_uvel_mean            =  -1.1732883216705E-07
(PID.TID 0000.0001) %MON dynstat_uvel_sd              =   1.6061737045524E-04
(PID.TID 0000.0001) %MON dynstat_uvel_del2            =   3.0717456403782E-07
(PID.TID 0000.0001) %MON dynstat_vvel_max             =   4.3930447203850E-03
(PID.TID 0000.0001) %MON dynstat_vvel_min             =  -2.2960063482707E-03
(PID.TID 0000.0001) %MON dynstat_vvel_mean            =   1.4939219189596E-05
(PID.TID 0000.0001) %MON dynstat_vvel_sd              =   1.5456775598763E-04
(PID.TID 0000.0001) %MON dynstat_vvel_del2            =   3.8474280096156E-07
(PID.TID 0000.0001) %MON dynstat_wvel_max             =   1.3728040864728E-04
(PID.TID 0000.0001) %MON dynstat_wvel_min             =  -1.3705678103977E-04
(PID.TID 0000.0001) %MON dynstat_wvel_mean            =   6.5547221752694E-09
(PID.TID 0000.0001) %MON dynstat_wvel_sd              =   2.7918979297353E-05
(PID.TID 0000.0001) %MON dynstat_wvel_del2            =   1.2714631046217E-07
(PID.TID 0000.0001) %MON dynstat_theta_max            =   1.2000000000000E+00
(PID.TID 0000.0001) %MON dynstat_theta_min            =  -1.0000000000000E+00
(PID.TID 0000.0001) %MON dynstat_theta_mean           =   5.6905121568995E-01
(PID.TID 0000.0001) %MON dynstat_theta_sd             =   8.6855659699318E-01
(PID.TID 0000.0001) %MON dynstat_theta_del2           =   1.0422193817685E-06
(PID.TID 0000.0001) %MON dynstat_salt_max             =   3.4700000000000E+01
(PID.TID 0000.0001) %MON dynstat_salt_min             =   3.4000000000000E+01
(PID.TID 0000.0001) %MON dynstat_salt_mean            =   3.4499234625868E+01
(PID.TID 0000.0001) %MON dynstat_salt_sd              =   2.7635650824213E-01
(PID.TID 0000.0001) %MON dynstat_salt_del2            =   3.6474575541411E-07
(PID.TID 0000.0001) %MON advcfl_uvel_max              =   3.7763122279386E-04
(PID.TID 0000.0001) %MON advcfl_vvel_max              =   4.3930447203850E-04
(PID.TID 0000.0001) %MON advcfl_wvel_max              =   6.8640204323640E-04
(PID.TID 0000.0001) %MON advcfl_W_hf_max              =   6.8640204323640E-04
(PID.TID 0000.0001) %MON pe_b_mean                    =  -8.3179767199210E-01
(PID.TID 0000.0001) %MON ke_max                       =   8.4023615590063E-06
(PID.TID 0000.0001) %MON ke_mean                      =   2.4698716535453E-08
(PID.TID 0000.0001) %MON ke_vol                       =   4.2725275907470E+12
(PID.TID 0000.0001) // =======================================================
(PID.TID 0000.0001) // End MONITOR dynamic field statistics
(PID.TID 0000.0001) // =======================================================
(PID.TID 0000.0001) // =======================================================
(PID.TID 0000.0001) // Begin OBCS MONITOR field statistics
(PID.TID 0000.0001) // =======================================================
(PID.TID 0000.0001) %MON obc_N_vVel_max               =   1.4711266118428E-05
(PID.TID 0000.0001) %MON obc_N_vVel_min               =   1.4711266118428E-05
(PID.TID 0000.0001) %MON obc_N_vVel_mean              =   1.4711266118428E-05
(PID.TID 0000.0001) %MON obc_N_vVel_sd                =   1.8331451766013E-12
(PID.TID 0000.0001) %MON obc_N_vVel_Int               =   9.7094356381626E+02
(PID.TID 0000.0001) // =======================================================
(PID.TID 0000.0001) // End OBCS MONITOR field statistics
(PID.TID 0000.0001) // =======================================================
 cg2d: Sum(rhs),rhsMax =   4.52068743407515E+00  2.99885486090959E+02
(PID.TID 0000.0001)      cg2d_init_res =   6.45722754510300E-06
(PID.TID 0000.0001)      cg2d_iters(min,last) =      -1      75
(PID.TID 0000.0001)      cg2d_last_res =   9.94371557715144E-12
(PID.TID 0000.0001) // =======================================================
(PID.TID 0000.0001) // Begin MONITOR dynamic field statistics
(PID.TID 0000.0001) // =======================================================
(PID.TID 0000.0001) %MON time_tsnumber                =                   409
(PID.TID 0000.0001) %MON time_secondsf                =   4.0900000000000E+04
(PID.TID 0000.0001) %MON dynstat_eta_max              =   5.7941212384691E+00
(PID.TID 0000.0001) %MON dynstat_eta_min              =  -1.4197903928551E+01
(PID.TID 0000.0001) %MON dynstat_eta_mean             =  -2.5105343493202E+00
(PID.TID 0000.0001) %MON dynstat_eta_sd               =   4.9521942920186E+00
(PID.TID 0000.0001) %MON dynstat_eta_del2             =   2.0714082042704E-01
(PID.TID 0000.0001) %MON dynstat_uvel_max             =   1.9705591088449E-03
(PID.TID 0000.0001) %MON dynstat_uvel_min             =  -3.7786215536718E-03
(PID.TID 0000.0001) %MON dynstat_uvel_mean            =  -1.1738261275045E-07
(PID.TID 0000.0001) %MON dynstat_uvel_sd              =   1.6103488579461E-04
(PID.TID 0000.0001) %MON dynstat_uvel_del2            =   3.0732232373780E-07
(PID.TID 0000.0001) %MON dynstat_vvel_max             =   4.3941306079862E-03
(PID.TID 0000.0001) %MON dynstat_vvel_min             =  -2.2984118784102E-03
(PID.TID 0000.0001) %MON dynstat_vvel_mean            =   1.4940511061872E-05
(PID.TID 0000.0001) %MON dynstat_vvel_sd              =   1.5460629578945E-04
(PID.TID 0000.0001) %MON dynstat_vvel_del2            =   3.8430471649093E-07
(PID.TID 0000.0001) %MON dynstat_wvel_max             =   1.3322245256363E-04
(PID.TID 0000.0001) %MON dynstat_wvel_min             =  -1.3301804654398E-04
(PID.TID 0000.0001) %MON dynstat_wvel_mean            =   6.5622662108388E-09
(PID.TID 0000.0001) %MON dynstat_wvel_sd              =   2.7868918782957E-05
(PID.TID 0000.0001) %MON dynstat_wvel_del2            =   1.2678009639227E-07
(PID.TID 0000.0001) %MON dynstat_theta_max            =   1.2000000000000E+00
(PID.TID 0000.0001) %MON dynstat_theta_min            =  -1.0000000000000E+00
(PID.TID 0000.0001) %MON dynstat_theta_mean           =   5.6905092012933E-01
(PID.TID 0000.0001) %MON dynstat_theta_sd             =   8.6855644620777E-01
(PID.TID 0000.0001) %MON dynstat_theta_del2           =   1.0416551879688E-06
(PID.TID 0000.0001) %MON dynstat_salt_max             =   3.4700000000000E+01
(PID.TID 0000.0001) %MON dynstat_salt_min             =   3.4000000000000E+01
(PID.TID 0000.0001) %MON dynstat_salt_mean            =   3.4499234507952E+01
(PID.TID 0000.0001) %MON dynstat_salt_sd              =   2.7635645288341E-01
(PID.TID 0000.0001) %MON dynstat_salt_del2            =   3.6474964300073E-07
(PID.TID 0000.0001) %MON advcfl_uvel_max              =   3.7786215536718E-04
(PID.TID 0000.0001) %MON advcfl_vvel_max              =   4.3941306079862E-04
(PID.TID 0000.0001) %MON advcfl_wvel_max              =   6.6611226281813E-04
(PID.TID 0000.0001) %MON advcfl_W_hf_max              =   6.6611226281813E-04
(PID.TID 0000.0001) %MON pe_b_mean                    =  -8.3180166115622E-01
(PID.TID 0000.0001) %MON ke_max                       =   8.3865824685328E-06
(PID.TID 0000.0001) %MON ke_mean                      =   2.4770510080902E-08
(PID.TID 0000.0001) %MON ke_vol                       =   4.2725275083483E+12
(PID.TID 0000.0001) // =======================================================
(PID.TID 0000.0001) // End MONITOR dynamic field statistics
(PID.TID 0000.0001) // =======================================================
(PID.TID 0000.0001) // =======================================================
(PID.TID 0000.0001) // Begin OBCS MONITOR field statistics
(PID.TID 0000.0001) // =======================================================
(PID.TID 0000.0001) %MON obc_N_vVel_max               =   1.4711875622063E-05
(PID.TID 0000.0001) %MON obc_N_vVel_min               =   1.4711875622063E-05
(PID.TID 0000.0001) %MON obc_N_vVel_mean              =   1.4711875622063E-05
(PID.TID 0000.0001) %MON obc_N_vVel_sd                =  -1.0856745539758E-23
(PID.TID 0000.0001) %MON obc_N_vVel_Int               =   9.7098379105618E+02
(PID.TID 0000.0001) // =======================================================
(PID.TID 0000.0001) // End OBCS MONITOR field statistics
(PID.TID 0000.0001) // =======================================================
 cg2d: Sum(rhs),rhsMax =   4.52071124247237E+00  2.99885563195381E+02
(PID.TID 0000.0001)      cg2d_init_res =   6.45315663012322E-06
(PID.TID 0000.0001)      cg2d_iters(min,last) =      -1      75
(PID.TID 0000.0001)      cg2d_last_res =   9.88820080042007E-12
(PID.TID 0000.0001) // =======================================================
(PID.TID 0000.0001) // Begin MONITOR dynamic field statistics
(PID.TID 0000.0001) // =======================================================
(PID.TID 0000.0001) %MON time_tsnumber                =                   410
(PID.TID 0000.0001) %MON time_secondsf                =   4.1000000000000E+04
(PID.TID 0000.0001) %MON dynstat_eta_max              =   5.7940879067976E+00
(PID.TID 0000.0001) %MON dynstat_eta_min              =  -1.4197927375463E+01
(PID.TID 0000.0001) %MON dynstat_eta_mean             =  -2.5105482166528E+00
(PID.TID 0000.0001) %MON dynstat_eta_sd               =   4.9521988679773E+00
(PID.TID 0000.0001) %MON dynstat_eta_del2             =   2.0714082679909E-01
(PID.TID 0000.0001) %MON dynstat_uvel_max             =   1.9668463516880E-03
(PID.TID 0000.0001) %MON dynstat_uvel_min             =  -3.7808469484732E-03
(PID.TID 0000.0001) %MON dynstat_uvel_mean            =  -1.1743443163012E-07
(PID.TID 0000.0001) %MON dynstat_uvel_sd              =   1.6145169384058E-04
(PID.TID 0000.0001) %MON dynstat_uvel_del2            =   3.0747453667152E-07
(PID.TID 0000.0001) %MON dynstat_vvel_max             =   4.3951262914250E-03
(PID.TID 0000.0001) %MON dynstat_vvel_min             =  -2.3007766715875E-03
(PID.TID 0000.0001) %MON dynstat_vvel_mean            =   1.4942527343850E-05
(PID.TID 0000.0001) %MON dynstat_vvel_sd              =   1.5463780671879E-04
(PID.TID 0000.0001) %MON dynstat_vvel_del2            =   3.8387541620849E-07
(PID.TID 0000.0001) %MON dynstat_wvel_max             =   1.3112789409593E-04
(PID.TID 0000.0001) %MON dynstat_wvel_min             =  -1.3605105392921E-04
(PID.TID 0000.0001) %MON dynstat_wvel_mean            =   6.5704509900183E-09
(PID.TID 0000.0001) %MON dynstat_wvel_sd              =   2.7818322964118E-05
(PID.TID 0000.0001) %MON dynstat_wvel_del2            =   1.2642215754600E-07
(PID.TID 0000.0001) %MON dynstat_theta_max            =   1.2000000000000E+00
(PID.TID 0000.0001) %MON dynstat_theta_min            =  -1.0000000000000E+00
(PID.TID 0000.0001) %MON dynstat_theta_mean           =   5.6905062405206E-01
(PID.TID 0000.0001) %MON dynstat_theta_sd             =   8.6855629524188E-01
(PID.TID 0000.0001) %MON dynstat_theta_del2           =   1.0411222462111E-06
(PID.TID 0000.0001) %MON dynstat_salt_max             =   3.4700000000000E+01
(PID.TID 0000.0001) %MON dynstat_salt_min             =   3.4000000000000E+01
(PID.TID 0000.0001) %MON dynstat_salt_mean            =   3.4499234389840E+01
(PID.TID 0000.0001) %MON dynstat_salt_sd              =   2.7635639744712E-01
(PID.TID 0000.0001) %MON dynstat_salt_del2            =   3.6476318149906E-07
(PID.TID 0000.0001) %MON advcfl_uvel_max              =   3.7808469484732E-04
(PID.TID 0000.0001) %MON advcfl_vvel_max              =   4.3951262914250E-04
(PID.TID 0000.0001) %MON advcfl_wvel_max              =   6.8025526964605E-04
(PID.TID 0000.0001) %MON advcfl_W_hf_max              =   6.8025526964605E-04
(PID.TID 0000.0001) %MON pe_b_mean                    =  -8.3180564971351E-01
(PID.TID 0000.0001) %MON ke_max                       =   8.3706043768260E-06
(PID.TID 0000.0001) %MON ke_mean                      =   2.4841287940393E-08
(PID.TID 0000.0001) %MON ke_vol                       =   4.2725274259650E+12
(PID.TID 0000.0001) // =======================================================
(PID.TID 0000.0001) // End MONITOR dynamic field statistics
(PID.TID 0000.0001) // =======================================================
(PID.TID 0000.0001) // =======================================================
(PID.TID 0000.0001) // Begin OBCS MONITOR field statistics
(PID.TID 0000.0001) // =======================================================
(PID.TID 0000.0001) %MON obc_N_vVel_max               =   1.4713113865518E-05
(PID.TID 0000.0001) %MON obc_N_vVel_min               =   1.4713113865518E-05
(PID.TID 0000.0001) %MON obc_N_vVel_mean              =   1.4713113865518E-05
(PID.TID 0000.0001) %MON obc_N_vVel_sd                =   4.1678283150357E-12
(PID.TID 0000.0001) %MON obc_N_vVel_Int               =   9.7106551512416E+02
(PID.TID 0000.0001) // =======================================================
(PID.TID 0000.0001) // End OBCS MONITOR field statistics
(PID.TID 0000.0001) // =======================================================
 cg2d: Sum(rhs),rhsMax =   4.52073504852669E+00  2.99885640302439E+02
(PID.TID 0000.0001)      cg2d_init_res =   6.44850400754166E-06
(PID.TID 0000.0001)      cg2d_iters(min,last) =      -1      75
(PID.TID 0000.0001)      cg2d_last_res =   9.83627428276718E-12
(PID.TID 0000.0001) // =======================================================
(PID.TID 0000.0001) // Begin MONITOR dynamic field statistics
(PID.TID 0000.0001) // =======================================================
(PID.TID 0000.0001) %MON time_tsnumber                =                   411
(PID.TID 0000.0001) %MON time_secondsf                =   4.1100000000000E+04
(PID.TID 0000.0001) %MON dynstat_eta_max              =   5.7940545769876E+00
(PID.TID 0000.0001) %MON dynstat_eta_min              =  -1.4197950827157E+01
(PID.TID 0000.0001) %MON dynstat_eta_mean             =  -2.5105620827132E+00
(PID.TID 0000.0001) %MON dynstat_eta_sd               =   4.9522034444281E+00
(PID.TID 0000.0001) %MON dynstat_eta_del2             =   2.0714083320901E-01
(PID.TID 0000.0001) %MON dynstat_uvel_max             =   1.9630695756097E-03
(PID.TID 0000.0001) %MON dynstat_uvel_min             =  -3.7829885100782E-03
(PID.TID 0000.0001) %MON dynstat_uvel_mean            =  -1.1748297863822E-07
(PID.TID 0000.0001) %MON dynstat_uvel_sd              =   1.6186777067495E-04
(PID.TID 0000.0001) %MON dynstat_uvel_del2            =   3.0763118347828E-07
(PID.TID 0000.0001) %MON dynstat_vvel_max             =   4.3960321044585E-03
(PID.TID 0000.0001) %MON dynstat_vvel_min             =  -2.3031008291916E-03
(PID.TID 0000.0001) %MON dynstat_vvel_mean            =   1.4945186280735E-05
(PID.TID 0000.0001) %MON dynstat_vvel_sd              =   1.5466228657196E-04
(PID.TID 0000.0001) %MON dynstat_vvel_del2            =   3.8346143540228E-07
(PID.TID 0000.0001) %MON dynstat_wvel_max             =   1.3349130997528E-04
(PID.TID 0000.0001) %MON dynstat_wvel_min             =  -1.3828391441354E-04
(PID.TID 0000.0001) %MON dynstat_wvel_mean            =   6.5790246397291E-09
(PID.TID 0000.0001) %MON dynstat_wvel_sd              =   2.7767534246782E-05
(PID.TID 0000.0001) %MON dynstat_wvel_del2            =   1.2608196201597E-07
(PID.TID 0000.0001) %MON dynstat_theta_max            =   1.2000000000000E+00
(PID.TID 0000.0001) %MON dynstat_theta_min            =  -1.0000000000000E+00
(PID.TID 0000.0001) %MON dynstat_theta_mean           =   5.6905032746164E-01
(PID.TID 0000.0001) %MON dynstat_theta_sd             =   8.6855614412365E-01
(PID.TID 0000.0001) %MON dynstat_theta_del2           =   1.0406161218262E-06
(PID.TID 0000.0001) %MON dynstat_salt_max             =   3.4700000000000E+01
(PID.TID 0000.0001) %MON dynstat_salt_min             =   3.4000000000000E+01
(PID.TID 0000.0001) %MON dynstat_salt_mean            =   3.4499234271533E+01
(PID.TID 0000.0001) %MON dynstat_salt_sd              =   2.7635634194233E-01
(PID.TID 0000.0001) %MON dynstat_salt_del2            =   3.6478511380952E-07
(PID.TID 0000.0001) %MON advcfl_uvel_max              =   3.7829885100782E-04
(PID.TID 0000.0001) %MON advcfl_vvel_max              =   4.3960321044585E-04
(PID.TID 0000.0001) %MON advcfl_wvel_max              =   6.9141957206770E-04
(PID.TID 0000.0001) %MON advcfl_W_hf_max              =   6.9141957206770E-04
(PID.TID 0000.0001) %MON pe_b_mean                    =  -8.3180963781595E-01
(PID.TID 0000.0001) %MON ke_max                       =   8.3544287719023E-06
(PID.TID 0000.0001) %MON ke_mean                      =   2.4911043235332E-08
(PID.TID 0000.0001) %MON ke_vol                       =   4.2725273435931E+12
(PID.TID 0000.0001) // =======================================================
(PID.TID 0000.0001) // End MONITOR dynamic field statistics
(PID.TID 0000.0001) // =======================================================
(PID.TID 0000.0001) // =======================================================
(PID.TID 0000.0001) // Begin OBCS MONITOR field statistics
(PID.TID 0000.0001) // =======================================================
(PID.TID 0000.0001) %MON obc_N_vVel_max               =   1.4714924153122E-05
(PID.TID 0000.0001) %MON obc_N_vVel_min               =   1.4714924153121E-05
(PID.TID 0000.0001) %MON obc_N_vVel_mean              =   1.4714924153122E-05
(PID.TID 0000.0001) %MON obc_N_vVel_sd                =  -1.6130021944784E-23
(PID.TID 0000.0001) %MON obc_N_vVel_Int               =   9.7118499410604E+02
(PID.TID 0000.0001) // =======================================================
(PID.TID 0000.0001) // End OBCS MONITOR field statistics
(PID.TID 0000.0001) // =======================================================
 cg2d: Sum(rhs),rhsMax =   4.52075885341280E+00  2.99885717399470E+02
(PID.TID 0000.0001)      cg2d_init_res =   6.44341855770938E-06
(PID.TID 0000.0001)      cg2d_iters(min,last) =      -1      75
(PID.TID 0000.0001)      cg2d_last_res =   9.79485130098279E-12
(PID.TID 0000.0001) // =======================================================
(PID.TID 0000.0001) // Begin MONITOR dynamic field statistics
(PID.TID 0000.0001) // =======================================================
(PID.TID 0000.0001) %MON time_tsnumber                =                   412
(PID.TID 0000.0001) %MON time_secondsf                =   4.1200000000000E+04
(PID.TID 0000.0001) %MON dynstat_eta_max              =   5.7940212486615E+00
(PID.TID 0000.0001) %MON dynstat_eta_min              =  -1.4197974284351E+01
(PID.TID 0000.0001) %MON dynstat_eta_mean             =  -2.5105759480476E+00
(PID.TID 0000.0001) %MON dynstat_eta_sd               =   4.9522080214877E+00
(PID.TID 0000.0001) %MON dynstat_eta_del2             =   2.0714083965677E-01
(PID.TID 0000.0001) %MON dynstat_uvel_max             =   1.9592290547741E-03
(PID.TID 0000.0001) %MON dynstat_uvel_min             =  -3.7850463395937E-03
(PID.TID 0000.0001) %MON dynstat_uvel_mean            =  -1.1752699606129E-07
(PID.TID 0000.0001) %MON dynstat_uvel_sd              =   1.6228309233015E-04
(PID.TID 0000.0001) %MON dynstat_uvel_del2            =   3.0779224716336E-07
(PID.TID 0000.0001) %MON dynstat_vvel_max             =   4.3968483620889E-03
(PID.TID 0000.0001) %MON dynstat_vvel_min             =  -2.3053844642007E-03
(PID.TID 0000.0001) %MON dynstat_vvel_mean            =   1.4948386643287E-05
(PID.TID 0000.0001) %MON dynstat_vvel_sd              =   1.5467974972611E-04
(PID.TID 0000.0001) %MON dynstat_vvel_del2            =   3.8306783469160E-07
(PID.TID 0000.0001) %MON dynstat_wvel_max             =   1.3438333835526E-04
(PID.TID 0000.0001) %MON dynstat_wvel_min             =  -1.3967587801060E-04
(PID.TID 0000.0001) %MON dynstat_wvel_mean            =   6.5876806885171E-09
(PID.TID 0000.0001) %MON dynstat_wvel_sd              =   2.7716759202901E-05
(PID.TID 0000.0001) %MON dynstat_wvel_del2            =   1.2576690352012E-07
(PID.TID 0000.0001) %MON dynstat_theta_max            =   1.2000000000000E+00
(PID.TID 0000.0001) %MON dynstat_theta_min            =  -1.0000000000000E+00
(PID.TID 0000.0001) %MON dynstat_theta_mean           =   5.6905003036133E-01
(PID.TID 0000.0001) %MON dynstat_theta_sd             =   8.6855599288696E-01
(PID.TID 0000.0001) %MON dynstat_theta_del2           =   1.0401347740520E-06
(PID.TID 0000.0001) %MON dynstat_salt_max             =   3.4700000000000E+01
(PID.TID 0000.0001) %MON dynstat_salt_min             =   3.4000000000000E+01
(PID.TID 0000.0001) %MON dynstat_salt_mean            =   3.4499234153030E+01
(PID.TID 0000.0001) %MON dynstat_salt_sd              =   2.7635628637955E-01
(PID.TID 0000.0001) %MON dynstat_salt_del2            =   3.6481491743856E-07
(PID.TID 0000.0001) %MON advcfl_uvel_max              =   3.7850463395937E-04
(PID.TID 0000.0001) %MON advcfl_vvel_max              =   4.3968483620889E-04
(PID.TID 0000.0001) %MON advcfl_wvel_max              =   6.9837939005299E-04
(PID.TID 0000.0001) %MON advcfl_W_hf_max              =   6.9837939005299E-04
(PID.TID 0000.0001) %MON pe_b_mean                    =  -8.3181362558789E-01
(PID.TID 0000.0001) %MON ke_max                       =   8.3380570877608E-06
(PID.TID 0000.0001) %MON ke_mean                      =   2.4979771465380E-08
(PID.TID 0000.0001) %MON ke_vol                       =   4.2725272612287E+12
(PID.TID 0000.0001) // =======================================================
(PID.TID 0000.0001) // End MONITOR dynamic field statistics
(PID.TID 0000.0001) // =======================================================
(PID.TID 0000.0001) // =======================================================
(PID.TID 0000.0001) // Begin OBCS MONITOR field statistics
(PID.TID 0000.0001) // =======================================================
(PID.TID 0000.0001) %MON obc_N_vVel_max               =   1.4717236117422E-05
(PID.TID 0000.0001) %MON obc_N_vVel_min               =   1.4717236117422E-05
(PID.TID 0000.0001) %MON obc_N_vVel_mean              =   1.4717236117422E-05
(PID.TID 0000.0001) %MON obc_N_vVel_sd                =  -1.5018497996666E-23
(PID.TID 0000.0001) %MON obc_N_vVel_Int               =   9.7133758374987E+02
(PID.TID 0000.0001) // =======================================================
(PID.TID 0000.0001) // End OBCS MONITOR field statistics
(PID.TID 0000.0001) // =======================================================
 cg2d: Sum(rhs),rhsMax =   4.52078265812807E+00  2.99885794473845E+02
(PID.TID 0000.0001)      cg2d_init_res =   6.43802482689631E-06
(PID.TID 0000.0001)      cg2d_iters(min,last) =      -1      75
(PID.TID 0000.0001)      cg2d_last_res =   9.76501059847242E-12
(PID.TID 0000.0001) // =======================================================
(PID.TID 0000.0001) // Begin MONITOR dynamic field statistics
(PID.TID 0000.0001) // =======================================================
(PID.TID 0000.0001) %MON time_tsnumber                =                   413
(PID.TID 0000.0001) %MON time_secondsf                =   4.1300000000000E+04
(PID.TID 0000.0001) %MON dynstat_eta_max              =   5.7939879214887E+00
(PID.TID 0000.0001) %MON dynstat_eta_min              =  -1.4197997747550E+01
(PID.TID 0000.0001) %MON dynstat_eta_mean             =  -2.5105898131043E+00
(PID.TID 0000.0001) %MON dynstat_eta_sd               =   4.9522125992048E+00
(PID.TID 0000.0001) %MON dynstat_eta_del2             =   2.0714084614139E-01
(PID.TID 0000.0001) %MON dynstat_uvel_max             =   1.9553250649137E-03
(PID.TID 0000.0001) %MON dynstat_uvel_min             =  -3.7870205414923E-03
(PID.TID 0000.0001) %MON dynstat_uvel_mean            =  -1.1756539967867E-07
(PID.TID 0000.0001) %MON dynstat_uvel_sd              =   1.6269763494459E-04
(PID.TID 0000.0001) %MON dynstat_uvel_del2            =   3.0795771332442E-07
(PID.TID 0000.0001) %MON dynstat_vvel_max             =   4.3975753618293E-03
(PID.TID 0000.0001) %MON dynstat_vvel_min             =  -2.3076277051715E-03
(PID.TID 0000.0001) %MON dynstat_vvel_mean            =   1.4952011260824E-05
(PID.TID 0000.0001) %MON dynstat_vvel_sd              =   1.5469021724709E-04
(PID.TID 0000.0001) %MON dynstat_vvel_del2            =   3.8269751685554E-07
(PID.TID 0000.0001) %MON dynstat_wvel_max             =   1.3377910158177E-04
(PID.TID 0000.0001) %MON dynstat_wvel_min             =  -1.4019172226923E-04
(PID.TID 0000.0001) %MON dynstat_wvel_mean            =   6.5961290168744E-09
(PID.TID 0000.0001) %MON dynstat_wvel_sd              =   2.7666011953284E-05
(PID.TID 0000.0001) %MON dynstat_wvel_del2            =   1.2548133094434E-07
(PID.TID 0000.0001) %MON dynstat_theta_max            =   1.2000000000000E+00
(PID.TID 0000.0001) %MON dynstat_theta_min            =  -1.0000000000000E+00
(PID.TID 0000.0001) %MON dynstat_theta_mean           =   5.6904973275468E-01
(PID.TID 0000.0001) %MON dynstat_theta_sd             =   8.6855584152540E-01
(PID.TID 0000.0001) %MON dynstat_theta_del2           =   1.0396799627051E-06
(PID.TID 0000.0001) %MON dynstat_salt_max             =   3.4700000000000E+01
(PID.TID 0000.0001) %MON dynstat_salt_min             =   3.4000000000000E+01
(PID.TID 0000.0001) %MON dynstat_salt_mean            =   3.4499234034334E+01
(PID.TID 0000.0001) %MON dynstat_salt_sd              =   2.7635623075689E-01
(PID.TID 0000.0001) %MON dynstat_salt_del2            =   3.6485311567931E-07
(PID.TID 0000.0001) %MON advcfl_uvel_max              =   3.7870205414923E-04
(PID.TID 0000.0001) %MON advcfl_vvel_max              =   4.3975753618293E-04
(PID.TID 0000.0001) %MON advcfl_wvel_max              =   7.0095861134613E-04
(PID.TID 0000.0001) %MON advcfl_W_hf_max              =   7.0095861134613E-04
(PID.TID 0000.0001) %MON pe_b_mean                    =  -8.3181761312124E-01
(PID.TID 0000.0001) %MON ke_max                       =   8.3214907192569E-06
(PID.TID 0000.0001) %MON ke_mean                      =   2.5047469057890E-08
(PID.TID 0000.0001) %MON ke_vol                       =   4.2725271788686E+12
(PID.TID 0000.0001) // =======================================================
(PID.TID 0000.0001) // End MONITOR dynamic field statistics
(PID.TID 0000.0001) // =======================================================
(PID.TID 0000.0001) // =======================================================
(PID.TID 0000.0001) // Begin OBCS MONITOR field statistics
(PID.TID 0000.0001) // =======================================================
(PID.TID 0000.0001) %MON obc_N_vVel_max               =   1.4719962424201E-05
(PID.TID 0000.0001) %MON obc_N_vVel_min               =   1.4719962424200E-05
(PID.TID 0000.0001) %MON obc_N_vVel_mean              =   1.4719962424201E-05
(PID.TID 0000.0001) %MON obc_N_vVel_sd                =  -6.0746076234363E-24
(PID.TID 0000.0001) %MON obc_N_vVel_Int               =   9.7151751999724E+02
(PID.TID 0000.0001) // =======================================================
(PID.TID 0000.0001) // End OBCS MONITOR field statistics
(PID.TID 0000.0001) // =======================================================
 cg2d: Sum(rhs),rhsMax =   4.52080646347950E+00  2.99885871513301E+02
(PID.TID 0000.0001)      cg2d_init_res =   6.43242646279964E-06
(PID.TID 0000.0001)      cg2d_iters(min,last) =      -1      75
(PID.TID 0000.0001)      cg2d_last_res =   9.74321800360146E-12
(PID.TID 0000.0001) // =======================================================
(PID.TID 0000.0001) // Begin MONITOR dynamic field statistics
(PID.TID 0000.0001) // =======================================================
(PID.TID 0000.0001) %MON time_tsnumber                =                   414
(PID.TID 0000.0001) %MON time_secondsf                =   4.1400000000000E+04
(PID.TID 0000.0001) %MON dynstat_eta_max              =   5.7939545952174E+00
(PID.TID 0000.0001) %MON dynstat_eta_min              =  -1.4198021217057E+01
(PID.TID 0000.0001) %MON dynstat_eta_mean             =  -2.5106036782287E+00
(PID.TID 0000.0001) %MON dynstat_eta_sd               =   4.9522171775920E+00
(PID.TID 0000.0001) %MON dynstat_eta_del2             =   2.0714085266242E-01
(PID.TID 0000.0001) %MON dynstat_uvel_max             =   1.9513578833389E-03
(PID.TID 0000.0001) %MON dynstat_uvel_min             =  -3.7889112246535E-03
(PID.TID 0000.0001) %MON dynstat_uvel_mean            =  -1.1759732058086E-07
(PID.TID 0000.0001) %MON dynstat_uvel_sd              =   1.6311137498387E-04
(PID.TID 0000.0001) %MON dynstat_uvel_del2            =   3.0812756979509E-07
(PID.TID 0000.0001) %MON dynstat_vvel_max             =   4.3982133928564E-03
(PID.TID 0000.0001) %MON dynstat_vvel_min             =  -2.3098306933562E-03
(PID.TID 0000.0001) %MON dynstat_vvel_mean            =   1.4955931258023E-05
(PID.TID 0000.0001) %MON dynstat_vvel_sd              =   1.5469371673518E-04
(PID.TID 0000.0001) %MON dynstat_vvel_del2            =   3.8235083310759E-07
(PID.TID 0000.0001) %MON dynstat_wvel_max             =   1.3167036652730E-04
(PID.TID 0000.0001) %MON dynstat_wvel_min             =  -1.3980233943175E-04
(PID.TID 0000.0001) %MON dynstat_wvel_mean            =   6.6040955562933E-09
(PID.TID 0000.0001) %MON dynstat_wvel_sd              =   2.7615081751670E-05
(PID.TID 0000.0001) %MON dynstat_wvel_del2            =   1.2522598547700E-07
(PID.TID 0000.0001) %MON dynstat_theta_max            =   1.2000000000000E+00
(PID.TID 0000.0001) %MON dynstat_theta_min            =  -1.0000000000000E+00
(PID.TID 0000.0001) %MON dynstat_theta_mean           =   5.6904943464660E-01
(PID.TID 0000.0001) %MON dynstat_theta_sd             =   8.6855569001804E-01
(PID.TID 0000.0001) %MON dynstat_theta_del2           =   1.0392565783912E-06
(PID.TID 0000.0001) %MON dynstat_salt_max             =   3.4700000000000E+01
(PID.TID 0000.0001) %MON dynstat_salt_min             =   3.4000000000000E+01
(PID.TID 0000.0001) %MON dynstat_salt_mean            =   3.4499233915446E+01
(PID.TID 0000.0001) %MON dynstat_salt_sd              =   2.7635617506755E-01
(PID.TID 0000.0001) %MON dynstat_salt_del2            =   3.6490112324974E-07
(PID.TID 0000.0001) %MON advcfl_uvel_max              =   3.7889112246535E-04
(PID.TID 0000.0001) %MON advcfl_vvel_max              =   4.3982133928564E-04
(PID.TID 0000.0001) %MON advcfl_wvel_max              =   6.9901169715874E-04
(PID.TID 0000.0001) %MON advcfl_W_hf_max              =   6.9901169715874E-04
(PID.TID 0000.0001) %MON pe_b_mean                    =  -8.3182160047851E-01
(PID.TID 0000.0001) %MON ke_max                       =   8.3047310421007E-06
(PID.TID 0000.0001) %MON ke_mean                      =   2.5114133438720E-08
(PID.TID 0000.0001) %MON ke_vol                       =   4.2725270965102E+12
(PID.TID 0000.0001) // =======================================================
(PID.TID 0000.0001) // End MONITOR dynamic field statistics
(PID.TID 0000.0001) // =======================================================
(PID.TID 0000.0001) // =======================================================
(PID.TID 0000.0001) // Begin OBCS MONITOR field statistics
(PID.TID 0000.0001) // =======================================================
(PID.TID 0000.0001) %MON obc_N_vVel_max               =   1.4723003467393E-05
(PID.TID 0000.0001) %MON obc_N_vVel_min               =   1.4723003467393E-05
(PID.TID 0000.0001) %MON obc_N_vVel_mean              =   1.4723003467393E-05
(PID.TID 0000.0001) %MON obc_N_vVel_sd                =   3.9806630866250E-12
(PID.TID 0000.0001) %MON obc_N_vVel_Int               =   9.7171822884794E+02
(PID.TID 0000.0001) // =======================================================
(PID.TID 0000.0001) // End OBCS MONITOR field statistics
(PID.TID 0000.0001) // =======================================================
 cg2d: Sum(rhs),rhsMax =   4.52083027005095E+00  2.99885948506284E+02
(PID.TID 0000.0001)      cg2d_init_res =   6.42668677065999E-06
(PID.TID 0000.0001)      cg2d_iters(min,last) =      -1      75
(PID.TID 0000.0001)      cg2d_last_res =   9.72604416533864E-12
(PID.TID 0000.0001) // =======================================================
(PID.TID 0000.0001) // Begin MONITOR dynamic field statistics
(PID.TID 0000.0001) // =======================================================
(PID.TID 0000.0001) %MON time_tsnumber                =                   415
(PID.TID 0000.0001) %MON time_secondsf                =   4.1500000000000E+04
(PID.TID 0000.0001) %MON dynstat_eta_max              =   5.7939212696934E+00
(PID.TID 0000.0001) %MON dynstat_eta_min              =  -1.4198044692961E+01
(PID.TID 0000.0001) %MON dynstat_eta_mean             =  -2.5106175436484E+00
(PID.TID 0000.0001) %MON dynstat_eta_sd               =   4.9522217566233E+00
(PID.TID 0000.0001) %MON dynstat_eta_del2             =   2.0714085921958E-01
(PID.TID 0000.0001) %MON dynstat_uvel_max             =   1.9473277888584E-03
(PID.TID 0000.0001) %MON dynstat_uvel_min             =  -3.7907185024990E-03
(PID.TID 0000.0001) %MON dynstat_uvel_mean            =  -1.1762215871413E-07
(PID.TID 0000.0001) %MON dynstat_uvel_sd              =   1.6352428947494E-04
(PID.TID 0000.0001) %MON dynstat_uvel_del2            =   3.0830180681599E-07
(PID.TID 0000.0001) %MON dynstat_vvel_max             =   4.3987627428024E-03
(PID.TID 0000.0001) %MON dynstat_vvel_min             =  -2.3119935778890E-03
(PID.TID 0000.0001) %MON dynstat_vvel_mean            =   1.4960010648988E-05
(PID.TID 0000.0001) %MON dynstat_vvel_sd              =   1.5469029364685E-04
(PID.TID 0000.0001) %MON dynstat_vvel_del2            =   3.8202553611387E-07
(PID.TID 0000.0001) %MON dynstat_wvel_max             =   1.2806608475731E-04
(PID.TID 0000.0001) %MON dynstat_wvel_min             =  -1.3866806165731E-04
(PID.TID 0000.0001) %MON dynstat_wvel_mean            =   6.6113287060642E-09
(PID.TID 0000.0001) %MON dynstat_wvel_sd              =   2.7563530340138E-05
(PID.TID 0000.0001) %MON dynstat_wvel_del2            =   1.2499792844582E-07
(PID.TID 0000.0001) %MON dynstat_theta_max            =   1.2000000000000E+00
(PID.TID 0000.0001) %MON dynstat_theta_min            =  -1.0000000000000E+00
(PID.TID 0000.0001) %MON dynstat_theta_mean           =   5.6904913604262E-01
(PID.TID 0000.0001) %MON dynstat_theta_sd             =   8.6855553836699E-01
(PID.TID 0000.0001) %MON dynstat_theta_del2           =   1.0388714826449E-06
(PID.TID 0000.0001) %MON dynstat_salt_max             =   3.4700000000000E+01
(PID.TID 0000.0001) %MON dynstat_salt_min             =   3.4000000000000E+01
(PID.TID 0000.0001) %MON dynstat_salt_mean            =   3.4499233796367E+01
(PID.TID 0000.0001) %MON dynstat_salt_sd              =   2.7635611931212E-01
(PID.TID 0000.0001) %MON dynstat_salt_del2            =   3.6496091133166E-07
(PID.TID 0000.0001) %MON advcfl_uvel_max              =   3.7907185024990E-04
(PID.TID 0000.0001) %MON advcfl_vvel_max              =   4.3987627428024E-04
(PID.TID 0000.0001) %MON advcfl_wvel_max              =   6.9334030828655E-04
(PID.TID 0000.0001) %MON advcfl_W_hf_max              =   6.9334030828655E-04
(PID.TID 0000.0001) %MON pe_b_mean                    =  -8.3182558768915E-01
(PID.TID 0000.0001) %MON ke_max                       =   8.2877794268787E-06
(PID.TID 0000.0001) %MON ke_mean                      =   2.5179764888748E-08
(PID.TID 0000.0001) %MON ke_vol                       =   4.2725270141513E+12
(PID.TID 0000.0001) // =======================================================
(PID.TID 0000.0001) // End MONITOR dynamic field statistics
(PID.TID 0000.0001) // =======================================================
(PID.TID 0000.0001) // =======================================================
(PID.TID 0000.0001) // Begin OBCS MONITOR field statistics
(PID.TID 0000.0001) // =======================================================
(PID.TID 0000.0001) %MON obc_N_vVel_max               =   1.4726251276428E-05
(PID.TID 0000.0001) %MON obc_N_vVel_min               =   1.4726251276428E-05
(PID.TID 0000.0001) %MON obc_N_vVel_mean              =   1.4726251276428E-05
(PID.TID 0000.0001) %MON obc_N_vVel_sd                =  -1.3079793435995E-23
(PID.TID 0000.0001) %MON obc_N_vVel_Int               =   9.7193258424425E+02
(PID.TID 0000.0001) // =======================================================
(PID.TID 0000.0001) // End OBCS MONITOR field statistics
(PID.TID 0000.0001) // =======================================================
 cg2d: Sum(rhs),rhsMax =   4.52085407819563E+00  2.99886025442195E+02
(PID.TID 0000.0001)      cg2d_init_res =   6.42083504341260E-06
(PID.TID 0000.0001)      cg2d_iters(min,last) =      -1      75
(PID.TID 0000.0001)      cg2d_last_res =   9.71331758796351E-12
(PID.TID 0000.0001) // =======================================================
(PID.TID 0000.0001) // Begin MONITOR dynamic field statistics
(PID.TID 0000.0001) // =======================================================
(PID.TID 0000.0001) %MON time_tsnumber                =                   416
(PID.TID 0000.0001) %MON time_secondsf                =   4.1600000000000E+04
(PID.TID 0000.0001) %MON dynstat_eta_max              =   5.7938879448305E+00
(PID.TID 0000.0001) %MON dynstat_eta_min              =  -1.4198068175146E+01
(PID.TID 0000.0001) %MON dynstat_eta_mean             =  -2.5106314094708E+00
(PID.TID 0000.0001) %MON dynstat_eta_sd               =   4.9522263362257E+00
(PID.TID 0000.0001) %MON dynstat_eta_del2             =   2.0714086581248E-01
(PID.TID 0000.0001) %MON dynstat_uvel_max             =   1.9432350618312E-03
(PID.TID 0000.0001) %MON dynstat_uvel_min             =  -3.7924424924594E-03
(PID.TID 0000.0001) %MON dynstat_uvel_mean            =  -1.1763963241007E-07
(PID.TID 0000.0001) %MON dynstat_uvel_sd              =   1.6393635626377E-04
(PID.TID 0000.0001) %MON dynstat_uvel_del2            =   3.0848041630612E-07
(PID.TID 0000.0001) %MON dynstat_vvel_max             =   4.3992237030901E-03
(PID.TID 0000.0001) %MON dynstat_vvel_min             =  -2.3141165113998E-03
(PID.TID 0000.0001) %MON dynstat_vvel_mean            =   1.4964111105353E-05
(PID.TID 0000.0001) %MON dynstat_vvel_sd              =   1.5468003373966E-04
(PID.TID 0000.0001) %MON dynstat_vvel_del2            =   3.8171706710716E-07
(PID.TID 0000.0001) %MON dynstat_wvel_max             =   1.2715892708292E-04
(PID.TID 0000.0001) %MON dynstat_wvel_min             =  -1.4123522726056E-04
(PID.TID 0000.0001) %MON dynstat_wvel_mean            =   6.6176075203912E-09
(PID.TID 0000.0001) %MON dynstat_wvel_sd              =   2.7510718576507E-05
(PID.TID 0000.0001) %MON dynstat_wvel_del2            =   1.2479094973613E-07
(PID.TID 0000.0001) %MON dynstat_theta_max            =   1.2000000000000E+00
(PID.TID 0000.0001) %MON dynstat_theta_min            =  -1.0000000000000E+00
(PID.TID 0000.0001) %MON dynstat_theta_mean           =   5.6904883694922E-01
(PID.TID 0000.0001) %MON dynstat_theta_sd             =   8.6855538651221E-01
(PID.TID 0000.0001) %MON dynstat_theta_del2           =   1.0385333020813E-06
(PID.TID 0000.0001) %MON dynstat_salt_max             =   3.4700000000000E+01
(PID.TID 0000.0001) %MON dynstat_salt_min             =   3.4000000000000E+01
(PID.TID 0000.0001) %MON dynstat_salt_mean            =   3.4499233677100E+01
(PID.TID 0000.0001) %MON dynstat_salt_sd              =   2.7635606347165E-01
(PID.TID 0000.0001) %MON dynstat_salt_del2            =   3.6503502173369E-07
(PID.TID 0000.0001) %MON advcfl_uvel_max              =   3.7924424924594E-04
(PID.TID 0000.0001) %MON advcfl_vvel_max              =   4.3992237030901E-04
(PID.TID 0000.0001) %MON advcfl_wvel_max              =   7.0617613630281E-04
(PID.TID 0000.0001) %MON advcfl_W_hf_max              =   7.0617613630281E-04
(PID.TID 0000.0001) %MON pe_b_mean                    =  -8.3182957474951E-01
(PID.TID 0000.0001) %MON ke_max                       =   8.2706372526308E-06
(PID.TID 0000.0001) %MON ke_mean                      =   2.5244370125249E-08
(PID.TID 0000.0001) %MON ke_vol                       =   4.2725269317907E+12
(PID.TID 0000.0001) // =======================================================
(PID.TID 0000.0001) // End MONITOR dynamic field statistics
(PID.TID 0000.0001) // =======================================================
(PID.TID 0000.0001) // =======================================================
(PID.TID 0000.0001) // Begin OBCS MONITOR field statistics
(PID.TID 0000.0001) // =======================================================
(PID.TID 0000.0001) %MON obc_N_vVel_max               =   1.4729593355469E-05
(PID.TID 0000.0001) %MON obc_N_vVel_min               =   1.4729593355468E-05
(PID.TID 0000.0001) %MON obc_N_vVel_mean              =   1.4729593355469E-05
(PID.TID 0000.0001) %MON obc_N_vVel_sd                =  -2.1791039261944E-23
(PID.TID 0000.0001) %MON obc_N_vVel_Int               =   9.7215316146093E+02
(PID.TID 0000.0001) // =======================================================
(PID.TID 0000.0001) // End OBCS MONITOR field statistics
(PID.TID 0000.0001) // =======================================================
 cg2d: Sum(rhs),rhsMax =   4.52087788800751E+00  2.99886102311676E+02
(PID.TID 0000.0001)      cg2d_init_res =   6.41485076952291E-06
(PID.TID 0000.0001)      cg2d_iters(min,last) =      -1      75
(PID.TID 0000.0001)      cg2d_last_res =   9.70905174412884E-12
(PID.TID 0000.0001) // =======================================================
(PID.TID 0000.0001) // Begin MONITOR dynamic field statistics
(PID.TID 0000.0001) // =======================================================
(PID.TID 0000.0001) %MON time_tsnumber                =                   417
(PID.TID 0000.0001) %MON time_secondsf                =   4.1700000000000E+04
(PID.TID 0000.0001) %MON dynstat_eta_max              =   5.7938546206245E+00
(PID.TID 0000.0001) %MON dynstat_eta_min              =  -1.4198091663288E+01
(PID.TID 0000.0001) %MON dynstat_eta_mean             =  -2.5106452756697E+00
(PID.TID 0000.0001) %MON dynstat_eta_sd               =   4.9522309162918E+00
(PID.TID 0000.0001) %MON dynstat_eta_del2             =   2.0714087244094E-01
(PID.TID 0000.0001) %MON dynstat_uvel_max             =   1.9390799858130E-03
(PID.TID 0000.0001) %MON dynstat_uvel_min             =  -3.7940833157740E-03
(PID.TID 0000.0001) %MON dynstat_uvel_mean            =  -1.1764980531882E-07
(PID.TID 0000.0001) %MON dynstat_uvel_sd              =   1.6434755438522E-04
(PID.TID 0000.0001) %MON dynstat_uvel_del2            =   3.0866339290685E-07
(PID.TID 0000.0001) %MON dynstat_vvel_max             =   4.3995965745500E-03
(PID.TID 0000.0001) %MON dynstat_vvel_min             =  -2.3161996453975E-03
(PID.TID 0000.0001) %MON dynstat_vvel_mean            =   1.4968096700866E-05
(PID.TID 0000.0001) %MON dynstat_vvel_sd              =   1.5466309531100E-04
(PID.TID 0000.0001) %MON dynstat_vvel_del2            =   3.8141913767182E-07
(PID.TID 0000.0001) %MON dynstat_wvel_max             =   1.3205883744980E-04
(PID.TID 0000.0001) %MON dynstat_wvel_min             =  -1.4192863443220E-04
(PID.TID 0000.0001) %MON dynstat_wvel_mean            =   6.6227467302072E-09
(PID.TID 0000.0001) %MON dynstat_wvel_sd              =   2.7455859423226E-05
(PID.TID 0000.0001) %MON dynstat_wvel_del2            =   1.2459639677439E-07
(PID.TID 0000.0001) %MON dynstat_theta_max            =   1.2000000000000E+00
(PID.TID 0000.0001) %MON dynstat_theta_min            =  -1.0000000000000E+00
(PID.TID 0000.0001) %MON dynstat_theta_mean           =   5.6904853737228E-01
(PID.TID 0000.0001) %MON dynstat_theta_sd             =   8.6855523437359E-01
(PID.TID 0000.0001) %MON dynstat_theta_del2           =   1.0382514654819E-06
(PID.TID 0000.0001) %MON dynstat_salt_max             =   3.4700000000000E+01
(PID.TID 0000.0001) %MON dynstat_salt_min             =   3.4000000000000E+01
(PID.TID 0000.0001) %MON dynstat_salt_mean            =   3.4499233557646E+01
(PID.TID 0000.0001) %MON dynstat_salt_sd              =   2.7635600752051E-01
(PID.TID 0000.0001) %MON dynstat_salt_del2            =   3.6512614954066E-07
(PID.TID 0000.0001) %MON advcfl_uvel_max              =   3.7940833157740E-04
(PID.TID 0000.0001) %MON advcfl_vvel_max              =   4.3995965745500E-04
(PID.TID 0000.0001) %MON advcfl_wvel_max              =   7.0964317216099E-04
(PID.TID 0000.0001) %MON advcfl_W_hf_max              =   7.0964317216099E-04
(PID.TID 0000.0001) %MON pe_b_mean                    =  -8.3183356161981E-01
(PID.TID 0000.0001) %MON ke_max                       =   8.2533059206396E-06
(PID.TID 0000.0001) %MON ke_mean                      =   2.5307967413269E-08
(PID.TID 0000.0001) %MON ke_vol                       =   4.2725268494277E+12
(PID.TID 0000.0001) // =======================================================
(PID.TID 0000.0001) // End MONITOR dynamic field statistics
(PID.TID 0000.0001) // =======================================================
(PID.TID 0000.0001) // =======================================================
(PID.TID 0000.0001) // Begin OBCS MONITOR field statistics
(PID.TID 0000.0001) // =======================================================
(PID.TID 0000.0001) %MON obc_N_vVel_max               =   1.4732916629176E-05
(PID.TID 0000.0001) %MON obc_N_vVel_min               =   1.4732916629176E-05
(PID.TID 0000.0001) %MON obc_N_vVel_mean              =   1.4732916629176E-05
(PID.TID 0000.0001) %MON obc_N_vVel_sd                =  -1.2511106764865E-23
(PID.TID 0000.0001) %MON obc_N_vVel_Int               =   9.7237249752563E+02
(PID.TID 0000.0001) // =======================================================
(PID.TID 0000.0001) // End OBCS MONITOR field statistics
(PID.TID 0000.0001) // =======================================================
 cg2d: Sum(rhs),rhsMax =   4.52090169933134E+00  2.99886179106833E+02
(PID.TID 0000.0001)      cg2d_init_res =   6.40868534741907E-06
(PID.TID 0000.0001)      cg2d_iters(min,last) =      -1      75
(PID.TID 0000.0001)      cg2d_last_res =   9.71822869671426E-12
(PID.TID 0000.0001) // =======================================================
(PID.TID 0000.0001) // Begin MONITOR dynamic field statistics
(PID.TID 0000.0001) // =======================================================
(PID.TID 0000.0001) %MON time_tsnumber                =                   418
(PID.TID 0000.0001) %MON time_secondsf                =   4.1800000000000E+04
(PID.TID 0000.0001) %MON dynstat_eta_max              =   5.7938212971466E+00
(PID.TID 0000.0001) %MON dynstat_eta_min              =  -1.4198115156869E+01
(PID.TID 0000.0001) %MON dynstat_eta_mean             =  -2.5106591420927E+00
(PID.TID 0000.0001) %MON dynstat_eta_sd               =   4.9522354966724E+00
(PID.TID 0000.0001) %MON dynstat_eta_del2             =   2.0714087910480E-01
(PID.TID 0000.0001) %MON dynstat_uvel_max             =   1.9348628495346E-03
(PID.TID 0000.0001) %MON dynstat_uvel_min             =  -3.7956410974471E-03
(PID.TID 0000.0001) %MON dynstat_uvel_mean            =  -1.1765298554756E-07
(PID.TID 0000.0001) %MON dynstat_uvel_sd              =   1.6475786437948E-04
(PID.TID 0000.0001) %MON dynstat_uvel_del2            =   3.0885073315991E-07
(PID.TID 0000.0001) %MON dynstat_vvel_max             =   4.3998816722901E-03
(PID.TID 0000.0001) %MON dynstat_vvel_min             =  -2.3182431263198E-03
(PID.TID 0000.0001) %MON dynstat_vvel_mean            =   1.4971838431274E-05
(PID.TID 0000.0001) %MON dynstat_vvel_sd              =   1.5463974855637E-04
(PID.TID 0000.0001) %MON dynstat_vvel_del2            =   3.8112452367092E-07
(PID.TID 0000.0001) %MON dynstat_wvel_max             =   1.3485765422819E-04
(PID.TID 0000.0001) %MON dynstat_wvel_min             =  -1.4073029527865E-04
(PID.TID 0000.0001) %MON dynstat_wvel_mean            =   6.6266031312620E-09
(PID.TID 0000.0001) %MON dynstat_wvel_sd              =   2.7398090666996E-05
(PID.TID 0000.0001) %MON dynstat_wvel_del2            =   1.2440430355545E-07
(PID.TID 0000.0001) %MON dynstat_theta_max            =   1.2000000000000E+00
(PID.TID 0000.0001) %MON dynstat_theta_min            =  -1.0000000000000E+00
(PID.TID 0000.0001) %MON dynstat_theta_mean           =   5.6904823731759E-01
(PID.TID 0000.0001) %MON dynstat_theta_sd             =   8.6855508194693E-01
(PID.TID 0000.0001) %MON dynstat_theta_del2           =   1.0380359173113E-06
(PID.TID 0000.0001) %MON dynstat_salt_max             =   3.4700000000000E+01
(PID.TID 0000.0001) %MON dynstat_salt_min             =   3.4000000000000E+01
(PID.TID 0000.0001) %MON dynstat_salt_mean            =   3.4499233438007E+01
(PID.TID 0000.0001) %MON dynstat_salt_sd              =   2.7635595145723E-01
(PID.TID 0000.0001) %MON dynstat_salt_del2            =   3.6523717711601E-07
(PID.TID 0000.0001) %MON advcfl_uvel_max              =   3.7956410974471E-04
(PID.TID 0000.0001) %MON advcfl_vvel_max              =   4.3998816722901E-04
(PID.TID 0000.0001) %MON advcfl_wvel_max              =   7.0365147639324E-04
(PID.TID 0000.0001) %MON advcfl_W_hf_max              =   7.0365147639324E-04
(PID.TID 0000.0001) %MON pe_b_mean                    =  -8.3183754822632E-01
(PID.TID 0000.0001) %MON ke_max                       =   8.2357868678696E-06
(PID.TID 0000.0001) %MON ke_mean                      =   2.5370592758483E-08
(PID.TID 0000.0001) %MON ke_vol                       =   4.2725267670625E+12
(PID.TID 0000.0001) // =======================================================
(PID.TID 0000.0001) // End MONITOR dynamic field statistics
(PID.TID 0000.0001) // =======================================================
(PID.TID 0000.0001) // =======================================================
(PID.TID 0000.0001) // Begin OBCS MONITOR field statistics
(PID.TID 0000.0001) // =======================================================
(PID.TID 0000.0001) %MON obc_N_vVel_max               =   1.4736111130849E-05
(PID.TID 0000.0001) %MON obc_N_vVel_min               =   1.4736111130849E-05
(PID.TID 0000.0001) %MON obc_N_vVel_mean              =   1.4736111130849E-05
(PID.TID 0000.0001) %MON obc_N_vVel_sd                =  -1.4682455872816E-23
(PID.TID 0000.0001) %MON obc_N_vVel_Int               =   9.7258333463605E+02
(PID.TID 0000.0001) // =======================================================
(PID.TID 0000.0001) // End OBCS MONITOR field statistics
(PID.TID 0000.0001) // =======================================================
 cg2d: Sum(rhs),rhsMax =   4.52092551179780E+00  2.99886255821382E+02
(PID.TID 0000.0001)      cg2d_init_res =   6.40229812377236E-06
(PID.TID 0000.0001)      cg2d_iters(min,last) =      -1      75
(PID.TID 0000.0001)      cg2d_last_res =   9.74295298969096E-12
(PID.TID 0000.0001) // =======================================================
(PID.TID 0000.0001) // Begin MONITOR dynamic field statistics
(PID.TID 0000.0001) // =======================================================
(PID.TID 0000.0001) %MON time_tsnumber                =                   419
(PID.TID 0000.0001) %MON time_secondsf                =   4.1900000000000E+04
(PID.TID 0000.0001) %MON dynstat_eta_max              =   5.7937879745188E+00
(PID.TID 0000.0001) %MON dynstat_eta_min              =  -1.4198138655181E+01
(PID.TID 0000.0001) %MON dynstat_eta_mean             =  -2.5106730084822E+00
(PID.TID 0000.0001) %MON dynstat_eta_sd               =   4.9522400771905E+00
(PID.TID 0000.0001) %MON dynstat_eta_del2             =   2.0714088580376E-01
(PID.TID 0000.0001) %MON dynstat_uvel_max             =   1.9305839438535E-03
(PID.TID 0000.0001) %MON dynstat_uvel_min             =  -3.7971159665207E-03
(PID.TID 0000.0001) %MON dynstat_uvel_mean            =  -1.1764968321051E-07
(PID.TID 0000.0001) %MON dynstat_uvel_sd              =   1.6516726869846E-04
(PID.TID 0000.0001) %MON dynstat_uvel_del2            =   3.0904243528360E-07
(PID.TID 0000.0001) %MON dynstat_vvel_max             =   4.4000793303889E-03
(PID.TID 0000.0001) %MON dynstat_vvel_min             =  -2.3202470916122E-03
(PID.TID 0000.0001) %MON dynstat_vvel_mean            =   1.4975218409091E-05
(PID.TID 0000.0001) %MON dynstat_vvel_sd              =   1.5461041772033E-04
(PID.TID 0000.0001) %MON dynstat_vvel_del2            =   3.8082595740462E-07
(PID.TID 0000.0001) %MON dynstat_wvel_max             =   1.3551715666334E-04
(PID.TID 0000.0001) %MON dynstat_wvel_min             =  -1.3764850888676E-04
(PID.TID 0000.0001) %MON dynstat_wvel_mean            =   6.6290815414571E-09
(PID.TID 0000.0001) %MON dynstat_wvel_sd              =   2.7336557538852E-05
(PID.TID 0000.0001) %MON dynstat_wvel_del2            =   1.2420465462366E-07
(PID.TID 0000.0001) %MON dynstat_theta_max            =   1.2000000000000E+00
(PID.TID 0000.0001) %MON dynstat_theta_min            =  -1.0000000000000E+00
(PID.TID 0000.0001) %MON dynstat_theta_mean           =   5.6904793679242E-01
(PID.TID 0000.0001) %MON dynstat_theta_sd             =   8.6855492925871E-01
(PID.TID 0000.0001) %MON dynstat_theta_del2           =   1.0378957426198E-06
(PID.TID 0000.0001) %MON dynstat_salt_max             =   3.4700000000000E+01
(PID.TID 0000.0001) %MON dynstat_salt_min             =   3.4000000000000E+01
(PID.TID 0000.0001) %MON dynstat_salt_mean            =   3.4499233318186E+01
(PID.TID 0000.0001) %MON dynstat_salt_sd              =   2.7635589529029E-01
(PID.TID 0000.0001) %MON dynstat_salt_del2            =   3.6537070345677E-07
(PID.TID 0000.0001) %MON advcfl_uvel_max              =   3.7971159665207E-04
(PID.TID 0000.0001) %MON advcfl_vvel_max              =   4.4000793303889E-04
(PID.TID 0000.0001) %MON advcfl_wvel_max              =   6.8824254443380E-04
(PID.TID 0000.0001) %MON advcfl_W_hf_max              =   6.8824254443380E-04
(PID.TID 0000.0001) %MON pe_b_mean                    =  -8.3184153447074E-01
(PID.TID 0000.0001) %MON ke_max                       =   8.2180815802506E-06
(PID.TID 0000.0001) %MON ke_mean                      =   2.5432306528047E-08
(PID.TID 0000.0001) %MON ke_vol                       =   4.2725266846960E+12
(PID.TID 0000.0001) // =======================================================
(PID.TID 0000.0001) // End MONITOR dynamic field statistics
(PID.TID 0000.0001) // =======================================================
(PID.TID 0000.0001) // =======================================================
(PID.TID 0000.0001) // Begin OBCS MONITOR field statistics
(PID.TID 0000.0001) // =======================================================
(PID.TID 0000.0001) %MON obc_N_vVel_max               =   1.4739073570208E-05
(PID.TID 0000.0001) %MON obc_N_vVel_min               =   1.4739073570208E-05
(PID.TID 0000.0001) %MON obc_N_vVel_mean              =   1.4739073570208E-05
(PID.TID 0000.0001) %MON obc_N_vVel_sd                =  -2.5849394142282E-24
(PID.TID 0000.0001) %MON obc_N_vVel_Int               =   9.7277885563375E+02
(PID.TID 0000.0001) // =======================================================
(PID.TID 0000.0001) // End OBCS MONITOR field statistics
(PID.TID 0000.0001) // =======================================================
 cg2d: Sum(rhs),rhsMax =   4.52094932482243E+00  2.99886332450766E+02
(PID.TID 0000.0001)      cg2d_init_res =   6.39565165251778E-06
(PID.TID 0000.0001)      cg2d_iters(min,last) =      -1      75
(PID.TID 0000.0001)      cg2d_last_res =   9.78194633486610E-12
(PID.TID 0000.0001) // =======================================================
(PID.TID 0000.0001) // Begin MONITOR dynamic field statistics
(PID.TID 0000.0001) // =======================================================
(PID.TID 0000.0001) %MON time_tsnumber                =                   420
(PID.TID 0000.0001) %MON time_secondsf                =   4.2000000000000E+04
(PID.TID 0000.0001) %MON dynstat_eta_max              =   5.7937546529239E+00
(PID.TID 0000.0001) %MON dynstat_eta_min              =  -1.4198162157357E+01
(PID.TID 0000.0001) %MON dynstat_eta_mean             =  -2.5106868744755E+00
(PID.TID 0000.0001) %MON dynstat_eta_sd               =   4.9522446576442E+00
(PID.TID 0000.0001) %MON dynstat_eta_del2             =   2.0714089253737E-01
(PID.TID 0000.0001) %MON dynstat_uvel_max             =   1.9262435615517E-03
(PID.TID 0000.0001) %MON dynstat_uvel_min             =  -3.7998264280379E-03
(PID.TID 0000.0001) %MON dynstat_uvel_mean            =  -1.1764062506317E-07
(PID.TID 0000.0001) %MON dynstat_uvel_sd              =   1.6557575210837E-04
(PID.TID 0000.0001) %MON dynstat_uvel_del2            =   3.0923849867058E-07
(PID.TID 0000.0001) %MON dynstat_vvel_max             =   4.4001899062991E-03
(PID.TID 0000.0001) %MON dynstat_vvel_min             =  -2.3222116665469E-03
(PID.TID 0000.0001) %MON dynstat_vvel_mean            =   1.4978133652495E-05
(PID.TID 0000.0001) %MON dynstat_vvel_sd              =   1.5457572216494E-04
(PID.TID 0000.0001) %MON dynstat_vvel_del2            =   3.8051700279321E-07
(PID.TID 0000.0001) %MON dynstat_wvel_max             =   1.3403375582467E-04
(PID.TID 0000.0001) %MON dynstat_wvel_min             =  -1.3271812723236E-04
(PID.TID 0000.0001) %MON dynstat_wvel_mean            =   6.6301360017424E-09
(PID.TID 0000.0001) %MON dynstat_wvel_sd              =   2.7270495837741E-05
(PID.TID 0000.0001) %MON dynstat_wvel_del2            =   1.2398861905766E-07
(PID.TID 0000.0001) %MON dynstat_theta_max            =   1.2000000000000E+00
(PID.TID 0000.0001) %MON dynstat_theta_min            =  -1.0000000000000E+00
(PID.TID 0000.0001) %MON dynstat_theta_mean           =   5.6904763580414E-01
(PID.TID 0000.0001) %MON dynstat_theta_sd             =   8.6855477635286E-01
(PID.TID 0000.0001) %MON dynstat_theta_del2           =   1.0378382545295E-06
(PID.TID 0000.0001) %MON dynstat_salt_max             =   3.4700000000000E+01
(PID.TID 0000.0001) %MON dynstat_salt_min             =   3.4000000000000E+01
(PID.TID 0000.0001) %MON dynstat_salt_mean            =   3.4499233198185E+01
(PID.TID 0000.0001) %MON dynstat_salt_sd              =   2.7635583903375E-01
(PID.TID 0000.0001) %MON dynstat_salt_del2            =   3.6552883978000E-07
(PID.TID 0000.0001) %MON advcfl_uvel_max              =   3.7998264280379E-04
(PID.TID 0000.0001) %MON advcfl_vvel_max              =   4.4001899062991E-04
(PID.TID 0000.0001) %MON advcfl_wvel_max              =   6.7016877912336E-04
(PID.TID 0000.0001) %MON advcfl_W_hf_max              =   6.7016877912336E-04
(PID.TID 0000.0001) %MON pe_b_mean                    =  -8.3184552022946E-01
(PID.TID 0000.0001) %MON ke_max                       =   8.2001916026111E-06
(PID.TID 0000.0001) %MON ke_mean                      =   2.5493199880192E-08
(PID.TID 0000.0001) %MON ke_vol                       =   4.2725266023296E+12
(PID.TID 0000.0001) // =======================================================
(PID.TID 0000.0001) // End MONITOR dynamic field statistics
(PID.TID 0000.0001) // =======================================================
(PID.TID 0000.0001) // =======================================================
(PID.TID 0000.0001) // Begin OBCS MONITOR field statistics
(PID.TID 0000.0001) // =======================================================
(PID.TID 0000.0001) %MON obc_N_vVel_max               =   1.4741710878719E-05
(PID.TID 0000.0001) %MON obc_N_vVel_min               =   1.4741710878719E-05
(PID.TID 0000.0001) %MON obc_N_vVel_mean              =   1.4741710878719E-05
(PID.TID 0000.0001) %MON obc_N_vVel_sd                =   3.3027934128618E-12
(PID.TID 0000.0001) %MON obc_N_vVel_Int               =   9.7295291799543E+02
(PID.TID 0000.0001) // =======================================================
(PID.TID 0000.0001) // End OBCS MONITOR field statistics
(PID.TID 0000.0001) // =======================================================
 cg2d: Sum(rhs),rhsMax =   4.52097313763496E+00  2.99886408992255E+02
(PID.TID 0000.0001)      cg2d_init_res =   6.38874471343445E-06
(PID.TID 0000.0001)      cg2d_iters(min,last) =      -1      75
(PID.TID 0000.0001)      cg2d_last_res =   9.83069555251481E-12
(PID.TID 0000.0001) // =======================================================
(PID.TID 0000.0001) // Begin MONITOR dynamic field statistics
(PID.TID 0000.0001) // =======================================================
(PID.TID 0000.0001) %MON time_tsnumber                =                   421
(PID.TID 0000.0001) %MON time_secondsf                =   4.2100000000000E+04
(PID.TID 0000.0001) %MON dynstat_eta_max              =   5.7937213325688E+00
(PID.TID 0000.0001) %MON dynstat_eta_min              =  -1.4198185662408E+01
(PID.TID 0000.0001) %MON dynstat_eta_mean             =  -2.5107007396218E+00
(PID.TID 0000.0001) %MON dynstat_eta_sd               =   4.9522492378174E+00
(PID.TID 0000.0001) %MON dynstat_eta_del2             =   2.0714089930535E-01
(PID.TID 0000.0001) %MON dynstat_uvel_max             =   1.9218419972984E-03
(PID.TID 0000.0001) %MON dynstat_uvel_min             =  -3.8113066625254E-03
(PID.TID 0000.0001) %MON dynstat_uvel_mean            =  -1.1762673728956E-07
(PID.TID 0000.0001) %MON dynstat_uvel_sd              =   1.6598330217953E-04
(PID.TID 0000.0001) %MON dynstat_uvel_del2            =   3.0943892381145E-07
(PID.TID 0000.0001) %MON dynstat_vvel_max             =   4.4002137843329E-03
(PID.TID 0000.0001) %MON dynstat_vvel_min             =  -2.3241369611693E-03
(PID.TID 0000.0001) %MON dynstat_vvel_mean            =   1.4980499307987E-05
(PID.TID 0000.0001) %MON dynstat_vvel_sd              =   1.5453651188446E-04
(PID.TID 0000.0001) %MON dynstat_vvel_del2            =   3.8019279491460E-07
(PID.TID 0000.0001) %MON dynstat_wvel_max             =   1.3043878599519E-04
(PID.TID 0000.0001) %MON dynstat_wvel_min             =  -1.3101501015298E-04
(PID.TID 0000.0001) %MON dynstat_wvel_mean            =   6.6297689571335E-09
(PID.TID 0000.0001) %MON dynstat_wvel_sd              =   2.7199305297694E-05
(PID.TID 0000.0001) %MON dynstat_wvel_del2            =   1.2374958933056E-07
(PID.TID 0000.0001) %MON dynstat_theta_max            =   1.2000000000000E+00
(PID.TID 0000.0001) %MON dynstat_theta_min            =  -1.0000000000000E+00
(PID.TID 0000.0001) %MON dynstat_theta_mean           =   5.6904733436048E-01
(PID.TID 0000.0001) %MON dynstat_theta_sd             =   8.6855462324809E-01
(PID.TID 0000.0001) %MON dynstat_theta_del2           =   1.0378684536253E-06
(PID.TID 0000.0001) %MON dynstat_salt_max             =   3.4700000000000E+01
(PID.TID 0000.0001) %MON dynstat_salt_min             =   3.4000000000000E+01
(PID.TID 0000.0001) %MON dynstat_salt_mean            =   3.4499233078006E+01
(PID.TID 0000.0001) %MON dynstat_salt_sd              =   2.7635578269369E-01
(PID.TID 0000.0001) %MON dynstat_salt_del2            =   3.6571302979967E-07
(PID.TID 0000.0001) %MON advcfl_uvel_max              =   3.8113066625254E-04
(PID.TID 0000.0001) %MON advcfl_vvel_max              =   4.4002137843329E-04
(PID.TID 0000.0001) %MON advcfl_wvel_max              =   6.5507505076489E-04
(PID.TID 0000.0001) %MON advcfl_W_hf_max              =   6.5507505076489E-04
(PID.TID 0000.0001) %MON pe_b_mean                    =  -8.3184950535922E-01
(PID.TID 0000.0001) %MON ke_max                       =   8.1821185477603E-06
(PID.TID 0000.0001) %MON ke_mean                      =   2.5553400321591E-08
(PID.TID 0000.0001) %MON ke_vol                       =   4.2725265199656E+12
(PID.TID 0000.0001) // =======================================================
(PID.TID 0000.0001) // End MONITOR dynamic field statistics
(PID.TID 0000.0001) // =======================================================
(PID.TID 0000.0001) // =======================================================
(PID.TID 0000.0001) // Begin OBCS MONITOR field statistics
(PID.TID 0000.0001) // =======================================================
(PID.TID 0000.0001) %MON obc_N_vVel_max               =   1.4743943239950E-05
(PID.TID 0000.0001) %MON obc_N_vVel_min               =   1.4743943239950E-05
(PID.TID 0000.0001) %MON obc_N_vVel_mean              =   1.4743943239950E-05
(PID.TID 0000.0001) %MON obc_N_vVel_sd                =   5.0842299458504E-13
(PID.TID 0000.0001) %MON obc_N_vVel_Int               =   9.7310025383670E+02
(PID.TID 0000.0001) // =======================================================
(PID.TID 0000.0001) // End OBCS MONITOR field statistics
(PID.TID 0000.0001) // =======================================================
 cg2d: Sum(rhs),rhsMax =   4.52099694930894E+00  2.99886485444893E+02
(PID.TID 0000.0001)      cg2d_init_res =   6.38160973954993E-06
(PID.TID 0000.0001)      cg2d_iters(min,last) =      -1      75
(PID.TID 0000.0001)      cg2d_last_res =   9.88187924712202E-12
(PID.TID 0000.0001) // =======================================================
(PID.TID 0000.0001) // Begin MONITOR dynamic field statistics
(PID.TID 0000.0001) // =======================================================
(PID.TID 0000.0001) %MON time_tsnumber                =                   422
(PID.TID 0000.0001) %MON time_secondsf                =   4.2200000000000E+04
(PID.TID 0000.0001) %MON dynstat_eta_max              =   5.7936880136899E+00
(PID.TID 0000.0001) %MON dynstat_eta_min              =  -1.4198209169255E+01
(PID.TID 0000.0001) %MON dynstat_eta_mean             =  -2.5107146033988E+00
(PID.TID 0000.0001) %MON dynstat_eta_sd               =   4.9522538174855E+00
(PID.TID 0000.0001) %MON dynstat_eta_del2             =   2.0714090610740E-01
(PID.TID 0000.0001) %MON dynstat_uvel_max             =   1.9173795477699E-03
(PID.TID 0000.0001) %MON dynstat_uvel_min             =  -3.8227889029221E-03
(PID.TID 0000.0001) %MON dynstat_uvel_mean            =  -1.1760913426427E-07
(PID.TID 0000.0001) %MON dynstat_uvel_sd              =   1.6638990972010E-04
(PID.TID 0000.0001) %MON dynstat_uvel_del2            =   3.0964371178277E-07
(PID.TID 0000.0001) %MON dynstat_vvel_max             =   4.4001513775642E-03
(PID.TID 0000.0001) %MON dynstat_vvel_min             =  -2.3260230683331E-03
(PID.TID 0000.0001) %MON dynstat_vvel_mean            =   1.4982251127516E-05
(PID.TID 0000.0001) %MON dynstat_vvel_sd              =   1.5449389405167E-04
(PID.TID 0000.0001) %MON dynstat_vvel_del2            =   3.7985055621418E-07
(PID.TID 0000.0001) %MON dynstat_wvel_max             =   1.2886322399785E-04
(PID.TID 0000.0001) %MON dynstat_wvel_min             =  -1.3325844086038E-04
(PID.TID 0000.0001) %MON dynstat_wvel_mean            =   6.6280301675148E-09
(PID.TID 0000.0001) %MON dynstat_wvel_sd              =   2.7122605538825E-05
(PID.TID 0000.0001) %MON dynstat_wvel_del2            =   1.2348390377682E-07
(PID.TID 0000.0001) %MON dynstat_theta_max            =   1.2000000000000E+00
(PID.TID 0000.0001) %MON dynstat_theta_min            =  -1.0000000000000E+00
(PID.TID 0000.0001) %MON dynstat_theta_mean           =   5.6904703246907E-01
(PID.TID 0000.0001) %MON dynstat_theta_sd             =   8.6855446991677E-01
(PID.TID 0000.0001) %MON dynstat_theta_del2           =   1.0379872958273E-06
(PID.TID 0000.0001) %MON dynstat_salt_max             =   3.4700000000000E+01
(PID.TID 0000.0001) %MON dynstat_salt_min             =   3.4000000000000E+01
(PID.TID 0000.0001) %MON dynstat_salt_mean            =   3.4499232957652E+01
(PID.TID 0000.0001) %MON dynstat_salt_sd              =   2.7635572626177E-01
(PID.TID 0000.0001) %MON dynstat_salt_del2            =   3.6592376657293E-07
(PID.TID 0000.0001) %MON advcfl_uvel_max              =   3.8227889029221E-04
(PID.TID 0000.0001) %MON advcfl_vvel_max              =   4.4001513775642E-04
(PID.TID 0000.0001) %MON advcfl_wvel_max              =   6.6629220430191E-04
(PID.TID 0000.0001) %MON advcfl_W_hf_max              =   6.6629220430191E-04
(PID.TID 0000.0001) %MON pe_b_mean                    =  -8.3185348970226E-01
(PID.TID 0000.0001) %MON ke_max                       =   8.1638641015991E-06
(PID.TID 0000.0001) %MON ke_mean                      =   2.5613075842763E-08
(PID.TID 0000.0001) %MON ke_vol                       =   4.2725264376066E+12
(PID.TID 0000.0001) // =======================================================
(PID.TID 0000.0001) // End MONITOR dynamic field statistics
(PID.TID 0000.0001) // =======================================================
(PID.TID 0000.0001) // =======================================================
(PID.TID 0000.0001) // Begin OBCS MONITOR field statistics
(PID.TID 0000.0001) // =======================================================
(PID.TID 0000.0001) %MON obc_N_vVel_max               =   1.4745706427703E-05
(PID.TID 0000.0001) %MON obc_N_vVel_min               =   1.4745706427703E-05
(PID.TID 0000.0001) %MON obc_N_vVel_mean              =   1.4745706427703E-05
(PID.TID 0000.0001) %MON obc_N_vVel_sd                =  -7.5480230895464E-24
(PID.TID 0000.0001) %MON obc_N_vVel_Int               =   9.7321662422843E+02
(PID.TID 0000.0001) // =======================================================
(PID.TID 0000.0001) // End OBCS MONITOR field statistics
(PID.TID 0000.0001) // =======================================================
 cg2d: Sum(rhs),rhsMax =   4.52102075878607E+00  2.99886561809524E+02
(PID.TID 0000.0001)      cg2d_init_res =   6.37433183098388E-06
(PID.TID 0000.0001)      cg2d_iters(min,last) =      -1      75
(PID.TID 0000.0001)      cg2d_last_res =   9.92576908058488E-12
(PID.TID 0000.0001) // =======================================================
(PID.TID 0000.0001) // Begin MONITOR dynamic field statistics
(PID.TID 0000.0001) // =======================================================
(PID.TID 0000.0001) %MON time_tsnumber                =                   423
(PID.TID 0000.0001) %MON time_secondsf                =   4.2300000000000E+04
(PID.TID 0000.0001) %MON dynstat_eta_max              =   5.7936546965337E+00
(PID.TID 0000.0001) %MON dynstat_eta_min              =  -1.4198232676782E+01
(PID.TID 0000.0001) %MON dynstat_eta_mean             =  -2.5107284652256E+00
(PID.TID 0000.0001) %MON dynstat_eta_sd               =   4.9522583964335E+00
(PID.TID 0000.0001) %MON dynstat_eta_del2             =   2.0714091294346E-01
(PID.TID 0000.0001) %MON dynstat_uvel_max             =   1.9128565115986E-03
(PID.TID 0000.0001) %MON dynstat_uvel_min             =  -3.8342733005958E-03
(PID.TID 0000.0001) %MON dynstat_uvel_mean            =  -1.1758905168856E-07
(PID.TID 0000.0001) %MON dynstat_uvel_sd              =   1.6679556928121E-04
(PID.TID 0000.0001) %MON dynstat_uvel_del2            =   3.0985286360469E-07
(PID.TID 0000.0001) %MON dynstat_vvel_max             =   4.4000031281355E-03
(PID.TID 0000.0001) %MON dynstat_vvel_min             =  -2.3278700618423E-03
(PID.TID 0000.0001) %MON dynstat_vvel_mean            =   1.4983347152657E-05
(PID.TID 0000.0001) %MON dynstat_vvel_sd              =   1.5444924847859E-04
(PID.TID 0000.0001) %MON dynstat_vvel_del2            =   3.7948983027001E-07
(PID.TID 0000.0001) %MON dynstat_wvel_max             =   1.3065014712688E-04
(PID.TID 0000.0001) %MON dynstat_wvel_min             =  -1.3468701920520E-04
(PID.TID 0000.0001) %MON dynstat_wvel_mean            =   6.6250143822649E-09
(PID.TID 0000.0001) %MON dynstat_wvel_sd              =   2.7040269211599E-05
(PID.TID 0000.0001) %MON dynstat_wvel_del2            =   1.2319116983961E-07
(PID.TID 0000.0001) %MON dynstat_theta_max            =   1.2000000000000E+00
(PID.TID 0000.0001) %MON dynstat_theta_min            =  -1.0000000000000E+00
(PID.TID 0000.0001) %MON dynstat_theta_mean           =   5.6904673013791E-01
(PID.TID 0000.0001) %MON dynstat_theta_sd             =   8.6855431637971E-01
(PID.TID 0000.0001) %MON dynstat_theta_del2           =   1.0381946974124E-06
(PID.TID 0000.0001) %MON dynstat_salt_max             =   3.4700000000000E+01
(PID.TID 0000.0001) %MON dynstat_salt_min             =   3.4000000000000E+01
(PID.TID 0000.0001) %MON dynstat_salt_mean            =   3.4499232837125E+01
(PID.TID 0000.0001) %MON dynstat_salt_sd              =   2.7635566974391E-01
(PID.TID 0000.0001) %MON dynstat_salt_del2            =   3.6616064509747E-07
(PID.TID 0000.0001) %MON advcfl_uvel_max              =   3.8342733005958E-04
(PID.TID 0000.0001) %MON advcfl_vvel_max              =   4.4000031281355E-04
(PID.TID 0000.0001) %MON advcfl_wvel_max              =   6.7343509602602E-04
(PID.TID 0000.0001) %MON advcfl_W_hf_max              =   6.7343509602602E-04
(PID.TID 0000.0001) %MON pe_b_mean                    =  -8.3185747309045E-01
(PID.TID 0000.0001) %MON ke_max                       =   8.1454300277208E-06
(PID.TID 0000.0001) %MON ke_mean                      =   2.5672437326542E-08
(PID.TID 0000.0001) %MON ke_vol                       =   4.2725263552558E+12
(PID.TID 0000.0001) // =======================================================
(PID.TID 0000.0001) // End MONITOR dynamic field statistics
(PID.TID 0000.0001) // =======================================================
(PID.TID 0000.0001) // =======================================================
(PID.TID 0000.0001) // Begin OBCS MONITOR field statistics
(PID.TID 0000.0001) // =======================================================
(PID.TID 0000.0001) %MON obc_N_vVel_max               =   1.4746953547512E-05
(PID.TID 0000.0001) %MON obc_N_vVel_min               =   1.4746953547511E-05
(PID.TID 0000.0001) %MON obc_N_vVel_mean              =   1.4746953547512E-05
(PID.TID 0000.0001) %MON obc_N_vVel_sd                =  -6.6691436887088E-24
(PID.TID 0000.0001) %MON obc_N_vVel_Int               =   9.7329893413578E+02
(PID.TID 0000.0001) // =======================================================
(PID.TID 0000.0001) // End OBCS MONITOR field statistics
(PID.TID 0000.0001) // =======================================================
 cg2d: Sum(rhs),rhsMax =   4.52104456492450E+00  2.99886638088664E+02
(PID.TID 0000.0001)      cg2d_init_res =   6.36704355607572E-06
(PID.TID 0000.0001)      cg2d_iters(min,last) =      -1      75
(PID.TID 0000.0001)      cg2d_last_res =   9.95332163206423E-12
(PID.TID 0000.0001) // =======================================================
(PID.TID 0000.0001) // Begin MONITOR dynamic field statistics
(PID.TID 0000.0001) // =======================================================
(PID.TID 0000.0001) %MON time_tsnumber                =                   424
(PID.TID 0000.0001) %MON time_secondsf                =   4.2400000000000E+04
(PID.TID 0000.0001) %MON dynstat_eta_max              =   5.7936213813322E+00
(PID.TID 0000.0001) %MON dynstat_eta_min              =  -1.4198256183865E+01
(PID.TID 0000.0001) %MON dynstat_eta_mean             =  -2.5107423244893E+00
(PID.TID 0000.0001) %MON dynstat_eta_sd               =   4.9522629744525E+00
(PID.TID 0000.0001) %MON dynstat_eta_del2             =   2.0714091981361E-01
(PID.TID 0000.0001) %MON dynstat_uvel_max             =   1.9082731895187E-03
(PID.TID 0000.0001) %MON dynstat_uvel_min             =  -3.8457600085371E-03
(PID.TID 0000.0001) %MON dynstat_uvel_mean            =  -1.1756778075630E-07
(PID.TID 0000.0001) %MON dynstat_uvel_sd              =   1.6720028001559E-04
(PID.TID 0000.0001) %MON dynstat_uvel_del2            =   3.1006638049077E-07
(PID.TID 0000.0001) %MON dynstat_vvel_max             =   4.3997695159668E-03
(PID.TID 0000.0001) %MON dynstat_vvel_min             =  -2.3296779959310E-03
(PID.TID 0000.0001) %MON dynstat_vvel_mean            =   1.4983768628778E-05
(PID.TID 0000.0001) %MON dynstat_vvel_sd              =   1.5440422919901E-04
(PID.TID 0000.0001) %MON dynstat_vvel_del2            =   3.7911240083039E-07
(PID.TID 0000.0001) %MON dynstat_wvel_max             =   1.3101329551815E-04
(PID.TID 0000.0001) %MON dynstat_wvel_min             =  -1.3526458797009E-04
(PID.TID 0000.0001) %MON dynstat_wvel_mean            =   6.6208591660540E-09
(PID.TID 0000.0001) %MON dynstat_wvel_sd              =   2.6952428774055E-05
(PID.TID 0000.0001) %MON dynstat_wvel_del2            =   1.2287415331659E-07
(PID.TID 0000.0001) %MON dynstat_theta_max            =   1.2000000000000E+00
(PID.TID 0000.0001) %MON dynstat_theta_min            =  -1.0000000000000E+00
(PID.TID 0000.0001) %MON dynstat_theta_mean           =   5.6904642737476E-01
(PID.TID 0000.0001) %MON dynstat_theta_sd             =   8.6855416265275E-01
(PID.TID 0000.0001) %MON dynstat_theta_del2           =   1.0384866421624E-06
(PID.TID 0000.0001) %MON dynstat_salt_max             =   3.4700000000000E+01
(PID.TID 0000.0001) %MON dynstat_salt_min             =   3.4000000000000E+01
(PID.TID 0000.0001) %MON dynstat_salt_mean            =   3.4499232716428E+01
(PID.TID 0000.0001) %MON dynstat_salt_sd              =   2.7635561314503E-01
(PID.TID 0000.0001) %MON dynstat_salt_del2            =   3.6642247879247E-07
(PID.TID 0000.0001) %MON advcfl_uvel_max              =   3.8457600085371E-04
(PID.TID 0000.0001) %MON advcfl_vvel_max              =   4.3997695159668E-04
(PID.TID 0000.0001) %MON advcfl_wvel_max              =   6.7632293985047E-04
(PID.TID 0000.0001) %MON advcfl_W_hf_max              =   6.7632293985047E-04
(PID.TID 0000.0001) %MON pe_b_mean                    =  -8.3186145535183E-01
(PID.TID 0000.0001) %MON ke_max                       =   8.1268181667890E-06
(PID.TID 0000.0001) %MON ke_mean                      =   2.5731738860521E-08
(PID.TID 0000.0001) %MON ke_vol                       =   4.2725262729166E+12
(PID.TID 0000.0001) // =======================================================
(PID.TID 0000.0001) // End MONITOR dynamic field statistics
(PID.TID 0000.0001) // =======================================================
(PID.TID 0000.0001) // =======================================================
(PID.TID 0000.0001) // Begin OBCS MONITOR field statistics
(PID.TID 0000.0001) // =======================================================
(PID.TID 0000.0001) %MON obc_N_vVel_max               =   1.4747656214530E-05
(PID.TID 0000.0001) %MON obc_N_vVel_min               =   1.4747656214530E-05
(PID.TID 0000.0001) %MON obc_N_vVel_mean              =   1.4747656214530E-05
(PID.TID 0000.0001) %MON obc_N_vVel_sd                =   3.0800531895111E-12
(PID.TID 0000.0001) %MON obc_N_vVel_Int               =   9.7334531015898E+02
(PID.TID 0000.0001) // =======================================================
(PID.TID 0000.0001) // End OBCS MONITOR field statistics
(PID.TID 0000.0001) // =======================================================
 cg2d: Sum(rhs),rhsMax =   4.52106836654733E+00  2.99886714286405E+02
(PID.TID 0000.0001)      cg2d_init_res =   6.35991551811284E-06
(PID.TID 0000.0001)      cg2d_iters(min,last) =      -1      75
(PID.TID 0000.0001)      cg2d_last_res =   9.96168109403626E-12
(PID.TID 0000.0001) // =======================================================
(PID.TID 0000.0001) // Begin MONITOR dynamic field statistics
(PID.TID 0000.0001) // =======================================================
(PID.TID 0000.0001) %MON time_tsnumber                =                   425
(PID.TID 0000.0001) %MON time_secondsf                =   4.2500000000000E+04
(PID.TID 0000.0001) %MON dynstat_eta_max              =   5.7935880683146E+00
(PID.TID 0000.0001) %MON dynstat_eta_min              =  -1.4198279689426E+01
(PID.TID 0000.0001) %MON dynstat_eta_mean             =  -2.5107561805705E+00
(PID.TID 0000.0001) %MON dynstat_eta_sd               =   4.9522675513407E+00
(PID.TID 0000.0001) %MON dynstat_eta_del2             =   2.0714092671763E-01
(PID.TID 0000.0001) %MON dynstat_uvel_max             =   1.9036298843773E-03
(PID.TID 0000.0001) %MON dynstat_uvel_min             =  -3.8572491813023E-03
(PID.TID 0000.0001) %MON dynstat_uvel_mean            =  -1.1754661062582E-07
(PID.TID 0000.0001) %MON dynstat_uvel_sd              =   1.6760404610966E-04
(PID.TID 0000.0001) %MON dynstat_uvel_del2            =   3.1028426296188E-07
(PID.TID 0000.0001) %MON dynstat_vvel_max             =   4.3994510514676E-03
(PID.TID 0000.0001) %MON dynstat_vvel_min             =  -2.3314469049769E-03
(PID.TID 0000.0001) %MON dynstat_vvel_mean            =   1.4983520186901E-05
(PID.TID 0000.0001) %MON dynstat_vvel_sd              =   1.5436075353022E-04
(PID.TID 0000.0001) %MON dynstat_vvel_del2            =   3.7872192848761E-07
(PID.TID 0000.0001) %MON dynstat_wvel_max             =   1.2993479016695E-04
(PID.TID 0000.0001) %MON dynstat_wvel_min             =  -1.3496063487725E-04
(PID.TID 0000.0001) %MON dynstat_wvel_mean            =   6.6157377256948E-09
(PID.TID 0000.0001) %MON dynstat_wvel_sd              =   2.6859459318707E-05
(PID.TID 0000.0001) %MON dynstat_wvel_del2            =   1.2253826507385E-07
(PID.TID 0000.0001) %MON dynstat_theta_max            =   1.2000000000000E+00
(PID.TID 0000.0001) %MON dynstat_theta_min            =  -1.0000000000000E+00
(PID.TID 0000.0001) %MON dynstat_theta_mean           =   5.6904612418810E-01
(PID.TID 0000.0001) %MON dynstat_theta_sd             =   8.6855400876272E-01
(PID.TID 0000.0001) %MON dynstat_theta_del2           =   1.0388568736582E-06
(PID.TID 0000.0001) %MON dynstat_salt_max             =   3.4700000000000E+01
(PID.TID 0000.0001) %MON dynstat_salt_min             =   3.4000000000000E+01
(PID.TID 0000.0001) %MON dynstat_salt_mean            =   3.4499232595563E+01
(PID.TID 0000.0001) %MON dynstat_salt_sd              =   2.7635555647366E-01
(PID.TID 0000.0001) %MON dynstat_salt_del2            =   3.6670745321259E-07
(PID.TID 0000.0001) %MON advcfl_uvel_max              =   3.8572491813023E-04
(PID.TID 0000.0001) %MON advcfl_vvel_max              =   4.3994510514676E-04
(PID.TID 0000.0001) %MON advcfl_wvel_max              =   6.7480317438624E-04
(PID.TID 0000.0001) %MON advcfl_W_hf_max              =   6.7480317438624E-04
(PID.TID 0000.0001) %MON pe_b_mean                    =  -8.3186543631772E-01
(PID.TID 0000.0001) %MON ke_max                       =   8.1080304347587E-06
(PID.TID 0000.0001) %MON ke_mean                      =   2.5791276054118E-08
(PID.TID 0000.0001) %MON ke_vol                       =   4.2725261905925E+12
(PID.TID 0000.0001) // =======================================================
(PID.TID 0000.0001) // End MONITOR dynamic field statistics
(PID.TID 0000.0001) // =======================================================
(PID.TID 0000.0001) // =======================================================
(PID.TID 0000.0001) // Begin OBCS MONITOR field statistics
(PID.TID 0000.0001) // =======================================================
(PID.TID 0000.0001) %MON obc_N_vVel_max               =   1.4747805309237E-05
(PID.TID 0000.0001) %MON obc_N_vVel_min               =   1.4747805309236E-05
(PID.TID 0000.0001) %MON obc_N_vVel_mean              =   1.4747805309236E-05
(PID.TID 0000.0001) %MON obc_N_vVel_sd                =   3.7430430968821E-12
(PID.TID 0000.0001) %MON obc_N_vVel_Int               =   9.7335515040960E+02
(PID.TID 0000.0001) // =======================================================
(PID.TID 0000.0001) // End OBCS MONITOR field statistics
(PID.TID 0000.0001) // =======================================================
 cg2d: Sum(rhs),rhsMax =   4.52109216248191E+00  2.99886790408159E+02
(PID.TID 0000.0001)      cg2d_init_res =   6.35314474718438E-06
(PID.TID 0000.0001)      cg2d_iters(min,last) =      -1      75
(PID.TID 0000.0001)      cg2d_last_res =   9.95314491680692E-12
(PID.TID 0000.0001) // =======================================================
(PID.TID 0000.0001) // Begin MONITOR dynamic field statistics
(PID.TID 0000.0001) // =======================================================
(PID.TID 0000.0001) %MON time_tsnumber                =                   426
(PID.TID 0000.0001) %MON time_secondsf                =   4.2600000000000E+04
(PID.TID 0000.0001) %MON dynstat_eta_max              =   5.7935547576767E+00
(PID.TID 0000.0001) %MON dynstat_eta_min              =  -1.4198303192434E+01
(PID.TID 0000.0001) %MON dynstat_eta_mean             =  -2.5107700328633E+00
(PID.TID 0000.0001) %MON dynstat_eta_sd               =   4.9522721269178E+00
(PID.TID 0000.0001) %MON dynstat_eta_del2             =   2.0714093365542E-01
(PID.TID 0000.0001) %MON dynstat_uvel_max             =   1.8989269011827E-03
(PID.TID 0000.0001) %MON dynstat_uvel_min             =  -3.8687409748182E-03
(PID.TID 0000.0001) %MON dynstat_uvel_mean            =  -1.1752681619511E-07
(PID.TID 0000.0001) %MON dynstat_uvel_sd              =   1.6800687742326E-04
(PID.TID 0000.0001) %MON dynstat_uvel_del2            =   3.1050651063156E-07
(PID.TID 0000.0001) %MON dynstat_vvel_max             =   4.3990482762739E-03
(PID.TID 0000.0001) %MON dynstat_vvel_min             =  -2.3331768041448E-03
(PID.TID 0000.0001) %MON dynstat_vvel_mean            =   1.4982629198258E-05
(PID.TID 0000.0001) %MON dynstat_vvel_sd              =   1.5432097931247E-04
(PID.TID 0000.0001) %MON dynstat_vvel_del2            =   3.7832336216693E-07
(PID.TID 0000.0001) %MON dynstat_wvel_max             =   1.2741271322010E-04
(PID.TID 0000.0001) %MON dynstat_wvel_min             =  -1.3375083471234E-04
(PID.TID 0000.0001) %MON dynstat_wvel_mean            =   6.6098518889140E-09
(PID.TID 0000.0001) %MON dynstat_wvel_sd              =   2.6761941101789E-05
(PID.TID 0000.0001) %MON dynstat_wvel_del2            =   1.2219072289318E-07
(PID.TID 0000.0001) %MON dynstat_theta_max            =   1.2000000000000E+00
(PID.TID 0000.0001) %MON dynstat_theta_min            =  -1.0000000000000E+00
(PID.TID 0000.0001) %MON dynstat_theta_mean           =   5.6904582058688E-01
(PID.TID 0000.0001) %MON dynstat_theta_sd             =   8.6855385468082E-01
(PID.TID 0000.0001) %MON dynstat_theta_del2           =   1.0392971226296E-06
(PID.TID 0000.0001) %MON dynstat_salt_max             =   3.4700000000000E+01
(PID.TID 0000.0001) %MON dynstat_salt_min             =   3.4000000000000E+01
(PID.TID 0000.0001) %MON dynstat_salt_mean            =   3.4499232474533E+01
(PID.TID 0000.0001) %MON dynstat_salt_sd              =   2.7635549972063E-01
(PID.TID 0000.0001) %MON dynstat_salt_del2            =   3.6701312521371E-07
(PID.TID 0000.0001) %MON advcfl_uvel_max              =   3.8687409748182E-04
(PID.TID 0000.0001) %MON advcfl_vvel_max              =   4.3990482762739E-04
(PID.TID 0000.0001) %MON advcfl_wvel_max              =   6.6875417356170E-04
(PID.TID 0000.0001) %MON advcfl_W_hf_max              =   6.6875417356170E-04
(PID.TID 0000.0001) %MON pe_b_mean                    =  -8.3186941582891E-01
(PID.TID 0000.0001) %MON ke_max                       =   8.0890688183538E-06
(PID.TID 0000.0001) %MON ke_mean                      =   2.5851382586346E-08
(PID.TID 0000.0001) %MON ke_vol                       =   4.2725261082874E+12
(PID.TID 0000.0001) // =======================================================
(PID.TID 0000.0001) // End MONITOR dynamic field statistics
(PID.TID 0000.0001) // =======================================================
(PID.TID 0000.0001) // =======================================================
(PID.TID 0000.0001) // Begin OBCS MONITOR field statistics
(PID.TID 0000.0001) // =======================================================
(PID.TID 0000.0001) %MON obc_N_vVel_max               =   1.4747410891111E-05
(PID.TID 0000.0001) %MON obc_N_vVel_min               =   1.4747410891110E-05
(PID.TID 0000.0001) %MON obc_N_vVel_mean              =   1.4747410891110E-05
(PID.TID 0000.0001) %MON obc_N_vVel_sd                =   3.9871515393202E-12
(PID.TID 0000.0001) %MON obc_N_vVel_Int               =   9.7332911881329E+02
(PID.TID 0000.0001) // =======================================================
(PID.TID 0000.0001) // End OBCS MONITOR field statistics
(PID.TID 0000.0001) // =======================================================
 cg2d: Sum(rhs),rhsMax =   4.52111595158922E+00  2.99886866460491E+02
(PID.TID 0000.0001)      cg2d_init_res =   6.34692521379518E-06
(PID.TID 0000.0001)      cg2d_iters(min,last) =      -1      75
(PID.TID 0000.0001)      cg2d_last_res =   9.93272405245870E-12
(PID.TID 0000.0001) // =======================================================
(PID.TID 0000.0001) // Begin MONITOR dynamic field statistics
(PID.TID 0000.0001) // =======================================================
(PID.TID 0000.0001) %MON time_tsnumber                =                   427
(PID.TID 0000.0001) %MON time_secondsf                =   4.2700000000000E+04
(PID.TID 0000.0001) %MON dynstat_eta_max              =   5.7935214495761E+00
(PID.TID 0000.0001) %MON dynstat_eta_min              =  -1.4198326691951E+01
(PID.TID 0000.0001) %MON dynstat_eta_mean             =  -2.5107838807901E+00
(PID.TID 0000.0001) %MON dynstat_eta_sd               =   4.9522767010310E+00
(PID.TID 0000.0001) %MON dynstat_eta_del2             =   2.0714094062702E-01
(PID.TID 0000.0001) %MON dynstat_uvel_max             =   1.8941645470822E-03
(PID.TID 0000.0001) %MON dynstat_uvel_min             =  -3.8802355462257E-03
(PID.TID 0000.0001) %MON dynstat_uvel_mean            =  -1.1750961646104E-07
(PID.TID 0000.0001) %MON dynstat_uvel_sd              =   1.6840879016544E-04
(PID.TID 0000.0001) %MON dynstat_uvel_del2            =   3.1073312205401E-07
(PID.TID 0000.0001) %MON dynstat_vvel_max             =   4.3985617614366E-03
(PID.TID 0000.0001) %MON dynstat_vvel_min             =  -2.3348676909993E-03
(PID.TID 0000.0001) %MON dynstat_vvel_mean            =   1.4981144398167E-05
(PID.TID 0000.0001) %MON dynstat_vvel_sd              =   1.5428727132585E-04
(PID.TID 0000.0001) %MON dynstat_vvel_del2            =   3.7792218927369E-07
(PID.TID 0000.0001) %MON dynstat_wvel_max             =   1.2654893731970E-04
(PID.TID 0000.0001) %MON dynstat_wvel_min             =  -1.3524300202970E-04
(PID.TID 0000.0001) %MON dynstat_wvel_mean            =   6.6034243420658E-09
(PID.TID 0000.0001) %MON dynstat_wvel_sd              =   2.6660606225980E-05
(PID.TID 0000.0001) %MON dynstat_wvel_del2            =   1.2183948315602E-07
(PID.TID 0000.0001) %MON dynstat_theta_max            =   1.2000000000000E+00
(PID.TID 0000.0001) %MON dynstat_theta_min            =  -1.0000000000000E+00
(PID.TID 0000.0001) %MON dynstat_theta_mean           =   5.6904551657978E-01
(PID.TID 0000.0001) %MON dynstat_theta_sd             =   8.6855370037842E-01
(PID.TID 0000.0001) %MON dynstat_theta_del2           =   1.0397986648588E-06
(PID.TID 0000.0001) %MON dynstat_salt_max             =   3.4700000000000E+01
(PID.TID 0000.0001) %MON dynstat_salt_min             =   3.4000000000000E+01
(PID.TID 0000.0001) %MON dynstat_salt_mean            =   3.4499232353341E+01
(PID.TID 0000.0001) %MON dynstat_salt_sd              =   2.7635544287687E-01
(PID.TID 0000.0001) %MON dynstat_salt_del2            =   3.6733695369985E-07
(PID.TID 0000.0001) %MON advcfl_uvel_max              =   3.8802355462257E-04
(PID.TID 0000.0001) %MON advcfl_vvel_max              =   4.3985617614366E-04
(PID.TID 0000.0001) %MON advcfl_wvel_max              =   6.7621501014850E-04
(PID.TID 0000.0001) %MON advcfl_W_hf_max              =   6.7621501014850E-04
(PID.TID 0000.0001) %MON pe_b_mean                    =  -8.3187339373879E-01
(PID.TID 0000.0001) %MON ke_max                       =   8.0699353690078E-06
(PID.TID 0000.0001) %MON ke_mean                      =   2.5912425133651E-08
(PID.TID 0000.0001) %MON ke_vol                       =   4.2725260260048E+12
(PID.TID 0000.0001) // =======================================================
(PID.TID 0000.0001) // End MONITOR dynamic field statistics
(PID.TID 0000.0001) // =======================================================
(PID.TID 0000.0001) // =======================================================
(PID.TID 0000.0001) // Begin OBCS MONITOR field statistics
(PID.TID 0000.0001) // =======================================================
(PID.TID 0000.0001) %MON obc_N_vVel_max               =   1.4746501388811E-05
(PID.TID 0000.0001) %MON obc_N_vVel_min               =   1.4746501388811E-05
(PID.TID 0000.0001) %MON obc_N_vVel_mean              =   1.4746501388811E-05
(PID.TID 0000.0001) %MON obc_N_vVel_sd                =  -7.4446255129772E-24
(PID.TID 0000.0001) %MON obc_N_vVel_Int               =   9.7326909166152E+02
(PID.TID 0000.0001) // =======================================================
(PID.TID 0000.0001) // End OBCS MONITOR field statistics
(PID.TID 0000.0001) // =======================================================
 cg2d: Sum(rhs),rhsMax =   4.52113973282069E+00  2.99886942450838E+02
(PID.TID 0000.0001)      cg2d_init_res =   6.34144415751915E-06
(PID.TID 0000.0001)      cg2d_iters(min,last) =      -1      75
(PID.TID 0000.0001)      cg2d_last_res =   9.90837163386090E-12
(PID.TID 0000.0001) // =======================================================
(PID.TID 0000.0001) // Begin MONITOR dynamic field statistics
(PID.TID 0000.0001) // =======================================================
(PID.TID 0000.0001) %MON time_tsnumber                =                   428
(PID.TID 0000.0001) %MON time_secondsf                =   4.2800000000000E+04
(PID.TID 0000.0001) %MON dynstat_eta_max              =   5.7934881441258E+00
(PID.TID 0000.0001) %MON dynstat_eta_min              =  -1.4198350187154E+01
(PID.TID 0000.0001) %MON dynstat_eta_mean             =  -2.5107977238307E+00
(PID.TID 0000.0001) %MON dynstat_eta_sd               =   4.9522812735586E+00
(PID.TID 0000.0001) %MON dynstat_eta_del2             =   2.0714094763223E-01
(PID.TID 0000.0001) %MON dynstat_uvel_max             =   1.8893431311770E-03
(PID.TID 0000.0001) %MON dynstat_uvel_min             =  -3.8917330533854E-03
(PID.TID 0000.0001) %MON dynstat_uvel_mean            =  -1.1749608854199E-07
(PID.TID 0000.0001) %MON dynstat_uvel_sd              =   1.6880980757967E-04
(PID.TID 0000.0001) %MON dynstat_uvel_del2            =   3.1096409464761E-07
(PID.TID 0000.0001) %MON dynstat_vvel_max             =   4.3979921046331E-03
(PID.TID 0000.0001) %MON dynstat_vvel_min             =  -2.3365195471339E-03
(PID.TID 0000.0001) %MON dynstat_vvel_mean            =   1.4979133803533E-05
(PID.TID 0000.0001) %MON dynstat_vvel_sd              =   1.5426216029576E-04
(PID.TID 0000.0001) %MON dynstat_vvel_del2            =   3.7752364465801E-07
(PID.TID 0000.0001) %MON dynstat_wvel_max             =   1.2659162730721E-04
(PID.TID 0000.0001) %MON dynstat_wvel_min             =  -1.3748690276156E-04
(PID.TID 0000.0001) %MON dynstat_wvel_mean            =   6.5966913244758E-09
(PID.TID 0000.0001) %MON dynstat_wvel_sd              =   2.6556279105072E-05
(PID.TID 0000.0001) %MON dynstat_wvel_del2            =   1.2149209941010E-07
(PID.TID 0000.0001) %MON dynstat_theta_max            =   1.2000000000000E+00
(PID.TID 0000.0001) %MON dynstat_theta_min            =  -1.0000000000000E+00
(PID.TID 0000.0001) %MON dynstat_theta_mean           =   5.6904521217657E-01
(PID.TID 0000.0001) %MON dynstat_theta_sd             =   8.6855354585605E-01
(PID.TID 0000.0001) %MON dynstat_theta_del2           =   1.0403526832521E-06
(PID.TID 0000.0001) %MON dynstat_salt_max             =   3.4700000000000E+01
(PID.TID 0000.0001) %MON dynstat_salt_min             =   3.4000000000000E+01
(PID.TID 0000.0001) %MON dynstat_salt_mean            =   3.4499232231989E+01
(PID.TID 0000.0001) %MON dynstat_salt_sd              =   2.7635538594257E-01
(PID.TID 0000.0001) %MON dynstat_salt_del2            =   3.6767638642693E-07
(PID.TID 0000.0001) %MON advcfl_uvel_max              =   3.8917330533854E-04
(PID.TID 0000.0001) %MON advcfl_vvel_max              =   4.3979921046331E-04
(PID.TID 0000.0001) %MON advcfl_wvel_max              =   6.8743451380781E-04
(PID.TID 0000.0001) %MON advcfl_W_hf_max              =   6.8743451380781E-04
(PID.TID 0000.0001) %MON pe_b_mean                    =  -8.3187736992114E-01
(PID.TID 0000.0001) %MON ke_max                       =   8.0506321951122E-06
(PID.TID 0000.0001) %MON ke_mean                      =   2.5974797217085E-08
(PID.TID 0000.0001) %MON ke_vol                       =   4.2725259437481E+12
(PID.TID 0000.0001) // =======================================================
(PID.TID 0000.0001) // End MONITOR dynamic field statistics
(PID.TID 0000.0001) // =======================================================
(PID.TID 0000.0001) // =======================================================
(PID.TID 0000.0001) // Begin OBCS MONITOR field statistics
(PID.TID 0000.0001) // =======================================================
(PID.TID 0000.0001) %MON obc_N_vVel_max               =   1.4745122103344E-05
(PID.TID 0000.0001) %MON obc_N_vVel_min               =   1.4745122103344E-05
(PID.TID 0000.0001) %MON obc_N_vVel_mean              =   1.4745122103344E-05
(PID.TID 0000.0001) %MON obc_N_vVel_sd                =   2.1510559154677E-12
(PID.TID 0000.0001) %MON obc_N_vVel_Int               =   9.7317805882068E+02
(PID.TID 0000.0001) // =======================================================
(PID.TID 0000.0001) // End OBCS MONITOR field statistics
(PID.TID 0000.0001) // =======================================================
 cg2d: Sum(rhs),rhsMax =   4.52116350523893E+00  2.99887018387271E+02
(PID.TID 0000.0001)      cg2d_init_res =   6.33684776060980E-06
(PID.TID 0000.0001)      cg2d_iters(min,last) =      -1      75
(PID.TID 0000.0001)      cg2d_last_res =   9.89038865608026E-12
(PID.TID 0000.0001) // =======================================================
(PID.TID 0000.0001) // Begin MONITOR dynamic field statistics
(PID.TID 0000.0001) // =======================================================
(PID.TID 0000.0001) %MON time_tsnumber                =                   429
(PID.TID 0000.0001) %MON time_secondsf                =   4.2900000000000E+04
(PID.TID 0000.0001) %MON dynstat_eta_max              =   5.7934548413820E+00
(PID.TID 0000.0001) %MON dynstat_eta_min              =  -1.4198373677373E+01
(PID.TID 0000.0001) %MON dynstat_eta_mean             =  -2.5108115615323E+00
(PID.TID 0000.0001) %MON dynstat_eta_sd               =   4.9522858444183E+00
(PID.TID 0000.0001) %MON dynstat_eta_del2             =   2.0714095467118E-01
(PID.TID 0000.0001) %MON dynstat_uvel_max             =   1.8844629646958E-03
(PID.TID 0000.0001) %MON dynstat_uvel_min             =  -3.9032336557936E-03
(PID.TID 0000.0001) %MON dynstat_uvel_mean            =  -1.1748719794099E-07
(PID.TID 0000.0001) %MON dynstat_uvel_sd              =   1.6920996061503E-04
(PID.TID 0000.0001) %MON dynstat_uvel_del2            =   3.1119942454906E-07
(PID.TID 0000.0001) %MON dynstat_vvel_max             =   4.3973399266628E-03
(PID.TID 0000.0001) %MON dynstat_vvel_min             =  -2.3381323411549E-03
(PID.TID 0000.0001) %MON dynstat_vvel_mean            =   1.4976681993400E-05
(PID.TID 0000.0001) %MON dynstat_vvel_sd              =   1.5424829804445E-04
(PID.TID 0000.0001) %MON dynstat_vvel_del2            =   3.7713198852223E-07
(PID.TID 0000.0001) %MON dynstat_wvel_max             =   1.2825215819416E-04
(PID.TID 0000.0001) %MON dynstat_wvel_min             =  -1.3793048365089E-04
(PID.TID 0000.0001) %MON dynstat_wvel_mean            =   6.5898969356769E-09
(PID.TID 0000.0001) %MON dynstat_wvel_sd              =   2.6449819896681E-05
(PID.TID 0000.0001) %MON dynstat_wvel_del2            =   1.2115466405376E-07
(PID.TID 0000.0001) %MON dynstat_theta_max            =   1.2000000000000E+00
(PID.TID 0000.0001) %MON dynstat_theta_min            =  -1.0000000000000E+00
(PID.TID 0000.0001) %MON dynstat_theta_mean           =   5.6904490738708E-01
(PID.TID 0000.0001) %MON dynstat_theta_sd             =   8.6855339107228E-01
(PID.TID 0000.0001) %MON dynstat_theta_del2           =   1.0409502979167E-06
(PID.TID 0000.0001) %MON dynstat_salt_max             =   3.4700000000000E+01
(PID.TID 0000.0001) %MON dynstat_salt_min             =   3.4000000000000E+01
(PID.TID 0000.0001) %MON dynstat_salt_mean            =   3.4499232110482E+01
(PID.TID 0000.0001) %MON dynstat_salt_sd              =   2.7635532890452E-01
(PID.TID 0000.0001) %MON dynstat_salt_del2            =   3.6802884858888E-07
(PID.TID 0000.0001) %MON advcfl_uvel_max              =   3.9032336557936E-04
(PID.TID 0000.0001) %MON advcfl_vvel_max              =   4.3973399266628E-04
(PID.TID 0000.0001) %MON advcfl_wvel_max              =   6.8965241825444E-04
(PID.TID 0000.0001) %MON advcfl_W_hf_max              =   6.8965241825444E-04
(PID.TID 0000.0001) %MON pe_b_mean                    =  -8.3188134427273E-01
(PID.TID 0000.0001) %MON ke_max                       =   8.0311614506651E-06
(PID.TID 0000.0001) %MON ke_mean                      =   2.6038912528847E-08
(PID.TID 0000.0001) %MON ke_vol                       =   4.2725258615204E+12
(PID.TID 0000.0001) // =======================================================
(PID.TID 0000.0001) // End MONITOR dynamic field statistics
(PID.TID 0000.0001) // =======================================================
(PID.TID 0000.0001) // =======================================================
(PID.TID 0000.0001) // Begin OBCS MONITOR field statistics
(PID.TID 0000.0001) // =======================================================
(PID.TID 0000.0001) %MON obc_N_vVel_max               =   1.4743333281367E-05
(PID.TID 0000.0001) %MON obc_N_vVel_min               =   1.4743333281367E-05
(PID.TID 0000.0001) %MON obc_N_vVel_mean              =   1.4743333281367E-05
(PID.TID 0000.0001) %MON obc_N_vVel_sd                =  -1.6414365280349E-23
(PID.TID 0000.0001) %MON obc_N_vVel_Int               =   9.7305999657025E+02
(PID.TID 0000.0001) // =======================================================
(PID.TID 0000.0001) // End OBCS MONITOR field statistics
(PID.TID 0000.0001) // =======================================================
 cg2d: Sum(rhs),rhsMax =   4.52118726804256E+00  2.99887094278227E+02
(PID.TID 0000.0001)      cg2d_init_res =   6.33323281573232E-06
(PID.TID 0000.0001)      cg2d_iters(min,last) =      -1      75
(PID.TID 0000.0001)      cg2d_last_res =   9.88811596224633E-12
(PID.TID 0000.0001) // =======================================================
(PID.TID 0000.0001) // Begin MONITOR dynamic field statistics
(PID.TID 0000.0001) // =======================================================
(PID.TID 0000.0001) %MON time_tsnumber                =                   430
(PID.TID 0000.0001) %MON time_secondsf                =   4.3000000000000E+04
(PID.TID 0000.0001) %MON dynstat_eta_max              =   5.7934215413343E+00
(PID.TID 0000.0001) %MON dynstat_eta_min              =  -1.4198397162088E+01
(PID.TID 0000.0001) %MON dynstat_eta_mean             =  -2.5108253935204E+00
(PID.TID 0000.0001) %MON dynstat_eta_sd               =   4.9522904135626E+00
(PID.TID 0000.0001) %MON dynstat_eta_del2             =   2.0714096174408E-01
(PID.TID 0000.0001) %MON dynstat_uvel_max             =   1.8795243609851E-03
(PID.TID 0000.0001) %MON dynstat_uvel_min             =  -3.9147375133215E-03
(PID.TID 0000.0001) %MON dynstat_uvel_mean            =  -1.1748378415204E-07
(PID.TID 0000.0001) %MON dynstat_uvel_sd              =   1.6960928854410E-04
(PID.TID 0000.0001) %MON dynstat_uvel_del2            =   3.1143910614812E-07
(PID.TID 0000.0001) %MON dynstat_vvel_max             =   4.3966058673375E-03
(PID.TID 0000.0001) %MON dynstat_vvel_min             =  -2.3397060313908E-03
(PID.TID 0000.0001) %MON dynstat_vvel_mean            =   1.4973886883580E-05
(PID.TID 0000.0001) %MON dynstat_vvel_sd              =   1.5424841137895E-04
(PID.TID 0000.0001) %MON dynstat_vvel_del2            =   3.7674994475166E-07
(PID.TID 0000.0001) %MON dynstat_wvel_max             =   1.3117142103425E-04
(PID.TID 0000.0001) %MON dynstat_wvel_min             =  -1.3655950470019E-04
(PID.TID 0000.0001) %MON dynstat_wvel_mean            =   6.5832815292359E-09
(PID.TID 0000.0001) %MON dynstat_wvel_sd              =   2.6342078424709E-05
(PID.TID 0000.0001) %MON dynstat_wvel_del2            =   1.2083096847033E-07
(PID.TID 0000.0001) %MON dynstat_theta_max            =   1.2000000000000E+00
(PID.TID 0000.0001) %MON dynstat_theta_min            =  -1.0000000000000E+00
(PID.TID 0000.0001) %MON dynstat_theta_mean           =   5.6904460222100E-01
(PID.TID 0000.0001) %MON dynstat_theta_sd             =   8.6855323595751E-01
(PID.TID 0000.0001) %MON dynstat_theta_del2           =   1.0415828388347E-06
(PID.TID 0000.0001) %MON dynstat_salt_max             =   3.4700000000000E+01
(PID.TID 0000.0001) %MON dynstat_salt_min             =   3.4000000000000E+01
(PID.TID 0000.0001) %MON dynstat_salt_mean            =   3.4499231988822E+01
(PID.TID 0000.0001) %MON dynstat_salt_sd              =   2.7635527174048E-01
(PID.TID 0000.0001) %MON dynstat_salt_del2            =   3.6839182001666E-07
(PID.TID 0000.0001) %MON advcfl_uvel_max              =   3.9147375133215E-04
(PID.TID 0000.0001) %MON advcfl_vvel_max              =   4.3966058673375E-04
(PID.TID 0000.0001) %MON advcfl_wvel_max              =   6.8279752350097E-04
(PID.TID 0000.0001) %MON advcfl_W_hf_max              =   6.8279752350097E-04
(PID.TID 0000.0001) %MON pe_b_mean                    =  -8.3188531671409E-01
(PID.TID 0000.0001) %MON ke_max                       =   8.0115253249968E-06
(PID.TID 0000.0001) %MON ke_mean                      =   2.6105198138597E-08
(PID.TID 0000.0001) %MON ke_vol                       =   4.2725257793245E+12
(PID.TID 0000.0001) // =======================================================
(PID.TID 0000.0001) // End MONITOR dynamic field statistics
(PID.TID 0000.0001) // =======================================================
(PID.TID 0000.0001) // =======================================================
(PID.TID 0000.0001) // Begin OBCS MONITOR field statistics
(PID.TID 0000.0001) // =======================================================
(PID.TID 0000.0001) %MON obc_N_vVel_max               =   1.4741208050639E-05
(PID.TID 0000.0001) %MON obc_N_vVel_min               =   1.4741208050639E-05
(PID.TID 0000.0001) %MON obc_N_vVel_mean              =   1.4741208050639E-05
(PID.TID 0000.0001) %MON obc_N_vVel_sd                =  -1.3209040406706E-23
(PID.TID 0000.0001) %MON obc_N_vVel_Int               =   9.7291973134219E+02
(PID.TID 0000.0001) // =======================================================
(PID.TID 0000.0001) // End OBCS MONITOR field statistics
(PID.TID 0000.0001) // =======================================================
 cg2d: Sum(rhs),rhsMax =   4.52121102059348E+00  2.99887170132222E+02
(PID.TID 0000.0001)      cg2d_init_res =   6.33061639424884E-06
(PID.TID 0000.0001)      cg2d_iters(min,last) =      -1      75
(PID.TID 0000.0001)      cg2d_last_res =   9.90486189305517E-12
(PID.TID 0000.0001) // =======================================================
(PID.TID 0000.0001) // Begin MONITOR dynamic field statistics
(PID.TID 0000.0001) // =======================================================
(PID.TID 0000.0001) %MON time_tsnumber                =                   431
(PID.TID 0000.0001) %MON time_secondsf                =   4.3100000000000E+04
(PID.TID 0000.0001) %MON dynstat_eta_max              =   5.7933882439015E+00
(PID.TID 0000.0001) %MON dynstat_eta_min              =  -1.4198420640970E+01
(PID.TID 0000.0001) %MON dynstat_eta_mean             =  -2.5108392195118E+00
(PID.TID 0000.0001) %MON dynstat_eta_sd               =   4.9522949809837E+00
(PID.TID 0000.0001) %MON dynstat_eta_del2             =   2.0714096885120E-01
(PID.TID 0000.0001) %MON dynstat_uvel_max             =   1.8745276354985E-03
(PID.TID 0000.0001) %MON dynstat_uvel_min             =  -3.9262447860571E-03
(PID.TID 0000.0001) %MON dynstat_uvel_mean            =  -1.1748645519927E-07
(PID.TID 0000.0001) %MON dynstat_uvel_sd              =   1.7000783960706E-04
(PID.TID 0000.0001) %MON dynstat_uvel_del2            =   3.1168313205524E-07
(PID.TID 0000.0001) %MON dynstat_vvel_max             =   4.3957905811114E-03
(PID.TID 0000.0001) %MON dynstat_vvel_min             =  -2.3412405694838E-03
(PID.TID 0000.0001) %MON dynstat_vvel_mean            =   1.4970856139375E-05
(PID.TID 0000.0001) %MON dynstat_vvel_sd              =   1.5426525693534E-04
(PID.TID 0000.0001) %MON dynstat_vvel_del2            =   3.7637837795738E-07
(PID.TID 0000.0001) %MON dynstat_wvel_max             =   1.3204231754725E-04
(PID.TID 0000.0001) %MON dynstat_wvel_min             =  -1.3587612887313E-04
(PID.TID 0000.0001) %MON dynstat_wvel_mean            =   6.5770732675661E-09
(PID.TID 0000.0001) %MON dynstat_wvel_sd              =   2.6233865648871E-05
(PID.TID 0000.0001) %MON dynstat_wvel_del2            =   1.2052200012342E-07
(PID.TID 0000.0001) %MON dynstat_theta_max            =   1.2000000000000E+00
(PID.TID 0000.0001) %MON dynstat_theta_min            =  -1.0000000000000E+00
(PID.TID 0000.0001) %MON dynstat_theta_mean           =   5.6904429668796E-01
(PID.TID 0000.0001) %MON dynstat_theta_sd             =   8.6855308050858E-01
(PID.TID 0000.0001) %MON dynstat_theta_del2           =   1.0422426970047E-06
(PID.TID 0000.0001) %MON dynstat_salt_max             =   3.4700000000000E+01
(PID.TID 0000.0001) %MON dynstat_salt_min             =   3.4000000000000E+01
(PID.TID 0000.0001) %MON dynstat_salt_mean            =   3.4499231867012E+01
(PID.TID 0000.0001) %MON dynstat_salt_sd              =   2.7635521444968E-01
(PID.TID 0000.0001) %MON dynstat_salt_del2            =   3.6876309768601E-07
(PID.TID 0000.0001) %MON advcfl_uvel_max              =   3.9262447860571E-04
(PID.TID 0000.0001) %MON advcfl_vvel_max              =   4.3957905811114E-04
(PID.TID 0000.0001) %MON advcfl_wvel_max              =   6.7938064436563E-04
(PID.TID 0000.0001) %MON advcfl_W_hf_max              =   6.7938064436563E-04
(PID.TID 0000.0001) %MON pe_b_mean                    =  -8.3188928719298E-01
(PID.TID 0000.0001) %MON ke_max                       =   7.9917260299023E-06
(PID.TID 0000.0001) %MON ke_mean                      =   2.6174087938482E-08
(PID.TID 0000.0001) %MON ke_vol                       =   4.2725256971625E+12
(PID.TID 0000.0001) // =======================================================
(PID.TID 0000.0001) // End MONITOR dynamic field statistics
(PID.TID 0000.0001) // =======================================================
(PID.TID 0000.0001) // =======================================================
(PID.TID 0000.0001) // Begin OBCS MONITOR field statistics
(PID.TID 0000.0001) // =======================================================
(PID.TID 0000.0001) %MON obc_N_vVel_max               =   1.4738829587037E-05
(PID.TID 0000.0001) %MON obc_N_vVel_min               =   1.4738829587036E-05
(PID.TID 0000.0001) %MON obc_N_vVel_mean              =   1.4738829587037E-05
(PID.TID 0000.0001) %MON obc_N_vVel_sd                =   1.1138989715542E-12
(PID.TID 0000.0001) %MON obc_N_vVel_Int               =   9.7276275274441E+02
(PID.TID 0000.0001) // =======================================================
(PID.TID 0000.0001) // End OBCS MONITOR field statistics
(PID.TID 0000.0001) // =======================================================
 cg2d: Sum(rhs),rhsMax =   4.52123476243968E+00  2.99887245957595E+02
(PID.TID 0000.0001)      cg2d_init_res =   6.32895329835415E-06
(PID.TID 0000.0001)      cg2d_iters(min,last) =      -1      75
(PID.TID 0000.0001)      cg2d_last_res =   9.93512695971030E-12
(PID.TID 0000.0001) // =======================================================
(PID.TID 0000.0001) // Begin MONITOR dynamic field statistics
(PID.TID 0000.0001) // =======================================================
(PID.TID 0000.0001) %MON time_tsnumber                =                   432
(PID.TID 0000.0001) %MON time_secondsf                =   4.3200000000000E+04
(PID.TID 0000.0001) %MON dynstat_eta_max              =   5.7933549489447E+00
(PID.TID 0000.0001) %MON dynstat_eta_min              =  -1.4198444113869E+01
(PID.TID 0000.0001) %MON dynstat_eta_mean             =  -2.5108530393255E+00
(PID.TID 0000.0001) %MON dynstat_eta_sd               =   4.9522995467017E+00
(PID.TID 0000.0001) %MON dynstat_eta_del2             =   2.0714097599258E-01
(PID.TID 0000.0001) %MON dynstat_uvel_max             =   1.8694731054872E-03
(PID.TID 0000.0001) %MON dynstat_uvel_min             =  -3.9377556340767E-03
(PID.TID 0000.0001) %MON dynstat_uvel_mean            =  -1.1749553474653E-07
(PID.TID 0000.0001) %MON dynstat_uvel_sd              =   1.7040567159959E-04
(PID.TID 0000.0001) %MON dynstat_uvel_del2            =   3.1193149283933E-07
(PID.TID 0000.0001) %MON dynstat_vvel_max             =   4.3948947323136E-03
(PID.TID 0000.0001) %MON dynstat_vvel_min             =  -2.3427359038735E-03
(PID.TID 0000.0001) %MON dynstat_vvel_mean            =   1.4967703305246E-05
(PID.TID 0000.0001) %MON dynstat_vvel_sd              =   1.5430157734578E-04
(PID.TID 0000.0001) %MON dynstat_vvel_del2            =   3.7601624416585E-07
(PID.TID 0000.0001) %MON dynstat_wvel_max             =   1.3085740509228E-04
(PID.TID 0000.0001) %MON dynstat_wvel_min             =  -1.3645284307771E-04
(PID.TID 0000.0001) %MON dynstat_wvel_mean            =   6.5714833995164E-09
(PID.TID 0000.0001) %MON dynstat_wvel_sd              =   2.6125945301590E-05
(PID.TID 0000.0001) %MON dynstat_wvel_del2            =   1.2022583611554E-07
(PID.TID 0000.0001) %MON dynstat_theta_max            =   1.2000000000000E+00
(PID.TID 0000.0001) %MON dynstat_theta_min            =  -1.0000000000000E+00
(PID.TID 0000.0001) %MON dynstat_theta_mean           =   5.6904399079796E-01
(PID.TID 0000.0001) %MON dynstat_theta_sd             =   8.6855292475904E-01
(PID.TID 0000.0001) %MON dynstat_theta_del2           =   1.0429243190556E-06
(PID.TID 0000.0001) %MON dynstat_salt_max             =   3.4700000000000E+01
(PID.TID 0000.0001) %MON dynstat_salt_min             =   3.4000000000000E+01
(PID.TID 0000.0001) %MON dynstat_salt_mean            =   3.4499231745055E+01
(PID.TID 0000.0001) %MON dynstat_salt_sd              =   2.7635515704268E-01
(PID.TID 0000.0001) %MON dynstat_salt_del2            =   3.6914111135049E-07
(PID.TID 0000.0001) %MON advcfl_uvel_max              =   3.9377556340767E-04
(PID.TID 0000.0001) %MON advcfl_vvel_max              =   4.3948947323136E-04
(PID.TID 0000.0001) %MON advcfl_wvel_max              =   6.8226421538855E-04
(PID.TID 0000.0001) %MON advcfl_W_hf_max              =   6.8226421538855E-04
(PID.TID 0000.0001) %MON pe_b_mean                    =  -8.3189325568593E-01
(PID.TID 0000.0001) %MON ke_max                       =   7.9717657879212E-06
(PID.TID 0000.0001) %MON ke_mean                      =   2.6246016359672E-08
(PID.TID 0000.0001) %MON ke_vol                       =   4.2725256150361E+12
(PID.TID 0000.0001) // =======================================================
(PID.TID 0000.0001) // End MONITOR dynamic field statistics
(PID.TID 0000.0001) // =======================================================
(PID.TID 0000.0001) // =======================================================
(PID.TID 0000.0001) // Begin OBCS MONITOR field statistics
(PID.TID 0000.0001) // =======================================================
(PID.TID 0000.0001) %MON obc_N_vVel_max               =   1.4736287903908E-05
(PID.TID 0000.0001) %MON obc_N_vVel_min               =   1.4736287903907E-05
(PID.TID 0000.0001) %MON obc_N_vVel_mean              =   1.4736287903907E-05
(PID.TID 0000.0001) %MON obc_N_vVel_sd                =   4.7856622540733E-12
(PID.TID 0000.0001) %MON obc_N_vVel_Int               =   9.7259500165788E+02
(PID.TID 0000.0001) // =======================================================
(PID.TID 0000.0001) // End OBCS MONITOR field statistics
(PID.TID 0000.0001) // =======================================================
 cg2d: Sum(rhs),rhsMax =   4.52125849331783E+00  2.99887321762289E+02
(PID.TID 0000.0001)      cg2d_init_res =   6.32812504850281E-06
(PID.TID 0000.0001)      cg2d_iters(min,last) =      -1      75
(PID.TID 0000.0001)      cg2d_last_res =   9.96735109942045E-12
(PID.TID 0000.0001) // =======================================================
(PID.TID 0000.0001) // Begin MONITOR dynamic field statistics
(PID.TID 0000.0001) // =======================================================
(PID.TID 0000.0001) %MON time_tsnumber                =                   433
(PID.TID 0000.0001) %MON time_secondsf                =   4.3300000000000E+04
(PID.TID 0000.0001) %MON dynstat_eta_max              =   5.7933216562613E+00
(PID.TID 0000.0001) %MON dynstat_eta_min              =  -1.4198467580814E+01
(PID.TID 0000.0001) %MON dynstat_eta_mean             =  -2.5108668528816E+00
(PID.TID 0000.0001) %MON dynstat_eta_sd               =   4.9523041107775E+00
(PID.TID 0000.0001) %MON dynstat_eta_del2             =   2.0714098316818E-01
(PID.TID 0000.0001) %MON dynstat_uvel_max             =   1.8643610902525E-03
(PID.TID 0000.0001) %MON dynstat_uvel_min             =  -3.9492702173485E-03
(PID.TID 0000.0001) %MON dynstat_uvel_mean            =  -1.1751114427608E-07
(PID.TID 0000.0001) %MON dynstat_uvel_sd              =   1.7080285241746E-04
(PID.TID 0000.0001) %MON dynstat_uvel_del2            =   3.1218417759283E-07
(PID.TID 0000.0001) %MON dynstat_vvel_max             =   4.3939189903393E-03
(PID.TID 0000.0001) %MON dynstat_vvel_min             =  -2.3441919835960E-03
(PID.TID 0000.0001) %MON dynstat_vvel_mean            =   1.4964543894131E-05
(PID.TID 0000.0001) %MON dynstat_vvel_sd              =   1.5436005999028E-04
(PID.TID 0000.0001) %MON dynstat_vvel_del2            =   3.7566082773837E-07
(PID.TID 0000.0001) %MON dynstat_wvel_max             =   1.2764221814064E-04
(PID.TID 0000.0001) %MON dynstat_wvel_min             =  -1.3703027458537E-04
(PID.TID 0000.0001) %MON dynstat_wvel_mean            =   6.5666986988157E-09
(PID.TID 0000.0001) %MON dynstat_wvel_sd              =   2.6019047859021E-05
(PID.TID 0000.0001) %MON dynstat_wvel_del2            =   1.1993795398229E-07
(PID.TID 0000.0001) %MON dynstat_theta_max            =   1.2000000000000E+00
(PID.TID 0000.0001) %MON dynstat_theta_min            =  -1.0000000000000E+00
(PID.TID 0000.0001) %MON dynstat_theta_mean           =   5.6904368456058E-01
(PID.TID 0000.0001) %MON dynstat_theta_sd             =   8.6855276875549E-01
(PID.TID 0000.0001) %MON dynstat_theta_del2           =   1.0436219994806E-06
(PID.TID 0000.0001) %MON dynstat_salt_max             =   3.4700000000000E+01
(PID.TID 0000.0001) %MON dynstat_salt_min             =   3.4000000000000E+01
(PID.TID 0000.0001) %MON dynstat_salt_mean            =   3.4499231622955E+01
(PID.TID 0000.0001) %MON dynstat_salt_sd              =   2.7635509953420E-01
(PID.TID 0000.0001) %MON dynstat_salt_del2            =   3.6952420026943E-07
(PID.TID 0000.0001) %MON advcfl_uvel_max              =   3.9492702173485E-04
(PID.TID 0000.0001) %MON advcfl_vvel_max              =   4.3939189903393E-04
(PID.TID 0000.0001) %MON advcfl_wvel_max              =   6.8515137292684E-04
(PID.TID 0000.0001) %MON advcfl_W_hf_max              =   6.8515137292684E-04
(PID.TID 0000.0001) %MON pe_b_mean                    =  -8.3189722219757E-01
(PID.TID 0000.0001) %MON ke_max                       =   7.9516468198288E-06
(PID.TID 0000.0001) %MON ke_mean                      =   2.6321412552955E-08
(PID.TID 0000.0001) %MON ke_vol                       =   4.2725255329464E+12
(PID.TID 0000.0001) // =======================================================
(PID.TID 0000.0001) // End MONITOR dynamic field statistics
(PID.TID 0000.0001) // =======================================================
(PID.TID 0000.0001) // =======================================================
(PID.TID 0000.0001) // Begin OBCS MONITOR field statistics
(PID.TID 0000.0001) // =======================================================
(PID.TID 0000.0001) %MON obc_N_vVel_max               =   1.4733676850102E-05
(PID.TID 0000.0001) %MON obc_N_vVel_min               =   1.4733676850101E-05
(PID.TID 0000.0001) %MON obc_N_vVel_mean              =   1.4733676850102E-05
(PID.TID 0000.0001) %MON obc_N_vVel_sd                =  -1.0236360080344E-23
(PID.TID 0000.0001) %MON obc_N_vVel_Int               =   9.7242267210672E+02
(PID.TID 0000.0001) // =======================================================
(PID.TID 0000.0001) // End OBCS MONITOR field statistics
(PID.TID 0000.0001) // =======================================================
 cg2d: Sum(rhs),rhsMax =   4.52128221316556E+00  2.99887397553582E+02
(PID.TID 0000.0001)      cg2d_init_res =   6.32796340406494E-06
(PID.TID 0000.0001)      cg2d_iters(min,last) =      -1      75
(PID.TID 0000.0001)      cg2d_last_res =   9.99522488417259E-12
(PID.TID 0000.0001) // =======================================================
(PID.TID 0000.0001) // Begin MONITOR dynamic field statistics
(PID.TID 0000.0001) // =======================================================
(PID.TID 0000.0001) %MON time_tsnumber                =                   434
(PID.TID 0000.0001) %MON time_secondsf                =   4.3400000000000E+04
(PID.TID 0000.0001) %MON dynstat_eta_max              =   5.7932883656001E+00
(PID.TID 0000.0001) %MON dynstat_eta_min              =  -1.4198491042003E+01
(PID.TID 0000.0001) %MON dynstat_eta_mean             =  -2.5108806602065E+00
(PID.TID 0000.0001) %MON dynstat_eta_sd               =   4.9523086732993E+00
(PID.TID 0000.0001) %MON dynstat_eta_del2             =   2.0714099037797E-01
(PID.TID 0000.0001) %MON dynstat_uvel_max             =   1.8591919110600E-03
(PID.TID 0000.0001) %MON dynstat_uvel_min             =  -3.9607886953403E-03
(PID.TID 0000.0001) %MON dynstat_uvel_mean            =  -1.1753327529371E-07
(PID.TID 0000.0001) %MON dynstat_uvel_sd              =   1.7119946049223E-04
(PID.TID 0000.0001) %MON dynstat_uvel_del2            =   3.1244117381964E-07
(PID.TID 0000.0001) %MON dynstat_vvel_max             =   4.3928640250277E-03
(PID.TID 0000.0001) %MON dynstat_vvel_min             =  -2.3456087619476E-03
(PID.TID 0000.0001) %MON dynstat_vvel_mean            =   1.4961491508583E-05
(PID.TID 0000.0001) %MON dynstat_vvel_sd              =   1.5444329845887E-04
(PID.TID 0000.0001) %MON dynstat_vvel_del2            =   3.7530822628889E-07
(PID.TID 0000.0001) %MON dynstat_wvel_max             =   1.2727488937210E-04
(PID.TID 0000.0001) %MON dynstat_wvel_min             =  -1.3760842631906E-04
(PID.TID 0000.0001) %MON dynstat_wvel_mean            =   6.5628740757291E-09
(PID.TID 0000.0001) %MON dynstat_wvel_sd              =   2.5913903908758E-05
(PID.TID 0000.0001) %MON dynstat_wvel_del2            =   1.1965190927776E-07
(PID.TID 0000.0001) %MON dynstat_theta_max            =   1.2000000000000E+00
(PID.TID 0000.0001) %MON dynstat_theta_min            =  -1.0000000000000E+00
(PID.TID 0000.0001) %MON dynstat_theta_mean           =   5.6904337798549E-01
(PID.TID 0000.0001) %MON dynstat_theta_sd             =   8.6855261251794E-01
(PID.TID 0000.0001) %MON dynstat_theta_del2           =   1.0443308516051E-06
(PID.TID 0000.0001) %MON dynstat_salt_max             =   3.4700000000000E+01
(PID.TID 0000.0001) %MON dynstat_salt_min             =   3.4000000000000E+01
(PID.TID 0000.0001) %MON dynstat_salt_mean            =   3.4499231500714E+01
(PID.TID 0000.0001) %MON dynstat_salt_sd              =   2.7635504193081E-01
(PID.TID 0000.0001) %MON dynstat_salt_del2            =   3.6991097310590E-07
(PID.TID 0000.0001) %MON advcfl_uvel_max              =   3.9607886953403E-04
(PID.TID 0000.0001) %MON advcfl_vvel_max              =   4.3928640250277E-04
(PID.TID 0000.0001) %MON advcfl_wvel_max              =   6.8804213159532E-04
(PID.TID 0000.0001) %MON advcfl_W_hf_max              =   6.8804213159532E-04
(PID.TID 0000.0001) %MON pe_b_mean                    =  -8.3190118676105E-01
(PID.TID 0000.0001) %MON ke_max                       =   7.9313713321390E-06
(PID.TID 0000.0001) %MON ke_mean                      =   2.6400695019849E-08
(PID.TID 0000.0001) %MON ke_vol                       =   4.2725254508939E+12
(PID.TID 0000.0001) // =======================================================
(PID.TID 0000.0001) // End MONITOR dynamic field statistics
(PID.TID 0000.0001) // =======================================================
(PID.TID 0000.0001) // =======================================================
(PID.TID 0000.0001) // Begin OBCS MONITOR field statistics
(PID.TID 0000.0001) // =======================================================
(PID.TID 0000.0001) %MON obc_N_vVel_max               =   1.4731090966956E-05
(PID.TID 0000.0001) %MON obc_N_vVel_min               =   1.4731090966956E-05
(PID.TID 0000.0001) %MON obc_N_vVel_mean              =   1.4731090966956E-05
(PID.TID 0000.0001) %MON obc_N_vVel_sd                =   2.8398962960629E-12
(PID.TID 0000.0001) %MON obc_N_vVel_Int               =   9.7225200381908E+02
(PID.TID 0000.0001) // =======================================================
(PID.TID 0000.0001) // End OBCS MONITOR field statistics
(PID.TID 0000.0001) // =======================================================
 cg2d: Sum(rhs),rhsMax =   4.52130592211864E+00  2.99887473337963E+02
(PID.TID 0000.0001)      cg2d_init_res =   6.32825089260673E-06
(PID.TID 0000.0001)      cg2d_iters(min,last) =      -1      77
(PID.TID 0000.0001)      cg2d_last_res =   8.92146469830453E-12
(PID.TID 0000.0001) // =======================================================
(PID.TID 0000.0001) // Begin MONITOR dynamic field statistics
(PID.TID 0000.0001) // =======================================================
(PID.TID 0000.0001) %MON time_tsnumber                =                   435
(PID.TID 0000.0001) %MON time_secondsf                =   4.3500000000000E+04
(PID.TID 0000.0001) %MON dynstat_eta_max              =   5.7932550762061E+00
(PID.TID 0000.0001) %MON dynstat_eta_min              =  -1.4198514497896E+01
(PID.TID 0000.0001) %MON dynstat_eta_mean             =  -2.5108944614299E+00
(PID.TID 0000.0001) %MON dynstat_eta_sd               =   4.9523132343992E+00
(PID.TID 0000.0001) %MON dynstat_eta_del2             =   2.0714099762280E-01
(PID.TID 0000.0001) %MON dynstat_uvel_max             =   1.8539658957612E-03
(PID.TID 0000.0001) %MON dynstat_uvel_min             =  -3.9740766122751E-03
(PID.TID 0000.0001) %MON dynstat_uvel_mean            =  -1.1756308532558E-07
(PID.TID 0000.0001) %MON dynstat_uvel_sd              =   1.7159558517133E-04
(PID.TID 0000.0001) %MON dynstat_uvel_del2            =   3.1270246812403E-07
(PID.TID 0000.0001) %MON dynstat_vvel_max             =   4.3917305149401E-03
(PID.TID 0000.0001) %MON dynstat_vvel_min             =  -2.3469861981091E-03
(PID.TID 0000.0001) %MON dynstat_vvel_mean            =   1.4958654099524E-05
(PID.TID 0000.0001) %MON dynstat_vvel_sd              =   1.5455375286981E-04
(PID.TID 0000.0001) %MON dynstat_vvel_del2            =   3.7495401511776E-07
(PID.TID 0000.0001) %MON dynstat_wvel_max             =   1.2858606853670E-04
(PID.TID 0000.0001) %MON dynstat_wvel_min             =  -1.3818729918171E-04
(PID.TID 0000.0001) %MON dynstat_wvel_mean            =   6.5601286030811E-09
(PID.TID 0000.0001) %MON dynstat_wvel_sd              =   2.5811291191808E-05
(PID.TID 0000.0001) %MON dynstat_wvel_del2            =   1.1936028405229E-07
(PID.TID 0000.0001) %MON dynstat_theta_max            =   1.2000000000000E+00
(PID.TID 0000.0001) %MON dynstat_theta_min            =  -1.0000000000000E+00
(PID.TID 0000.0001) %MON dynstat_theta_mean           =   5.6904307108242E-01
(PID.TID 0000.0001) %MON dynstat_theta_sd             =   8.6855245603284E-01
(PID.TID 0000.0001) %MON dynstat_theta_del2           =   1.0450458807137E-06
(PID.TID 0000.0001) %MON dynstat_salt_max             =   3.4700000000000E+01
(PID.TID 0000.0001) %MON dynstat_salt_min             =   3.4000000000000E+01
(PID.TID 0000.0001) %MON dynstat_salt_mean            =   3.4499231378336E+01
(PID.TID 0000.0001) %MON dynstat_salt_sd              =   2.7635498422821E-01
(PID.TID 0000.0001) %MON dynstat_salt_del2            =   3.7029999631871E-07
(PID.TID 0000.0001) %MON advcfl_uvel_max              =   3.9740766122751E-04
(PID.TID 0000.0001) %MON advcfl_vvel_max              =   4.3917305149401E-04
(PID.TID 0000.0001) %MON advcfl_wvel_max              =   6.9093649590855E-04
(PID.TID 0000.0001) %MON advcfl_W_hf_max              =   6.9093649590855E-04
(PID.TID 0000.0001) %MON pe_b_mean                    =  -8.3190514943643E-01
(PID.TID 0000.0001) %MON ke_max                       =   7.9109414811627E-06
(PID.TID 0000.0001) %MON ke_mean                      =   2.6484266089137E-08
(PID.TID 0000.0001) %MON ke_vol                       =   4.2725253688784E+12
(PID.TID 0000.0001) // =======================================================
(PID.TID 0000.0001) // End MONITOR dynamic field statistics
(PID.TID 0000.0001) // =======================================================
(PID.TID 0000.0001) // =======================================================
(PID.TID 0000.0001) // Begin OBCS MONITOR field statistics
(PID.TID 0000.0001) // =======================================================
(PID.TID 0000.0001) %MON obc_N_vVel_max               =   1.4728622161444E-05
(PID.TID 0000.0001) %MON obc_N_vVel_min               =   1.4728622161444E-05
(PID.TID 0000.0001) %MON obc_N_vVel_mean              =   1.4728622161444E-05
(PID.TID 0000.0001) %MON obc_N_vVel_sd                =  -1.6698708615914E-23
(PID.TID 0000.0001) %MON obc_N_vVel_Int               =   9.7208906265533E+02
(PID.TID 0000.0001) // =======================================================
(PID.TID 0000.0001) // End OBCS MONITOR field statistics
(PID.TID 0000.0001) // =======================================================
 cg2d: Sum(rhs),rhsMax =   4.52132962049176E+00  2.99887549121112E+02
(PID.TID 0000.0001)      cg2d_init_res =   6.32886914056604E-06
(PID.TID 0000.0001)      cg2d_iters(min,last) =      -1      77
(PID.TID 0000.0001)      cg2d_last_res =   8.95706792248812E-12
(PID.TID 0000.0001) // =======================================================
(PID.TID 0000.0001) // Begin MONITOR dynamic field statistics
(PID.TID 0000.0001) // =======================================================
(PID.TID 0000.0001) %MON time_tsnumber                =                   436
(PID.TID 0000.0001) %MON time_secondsf                =   4.3600000000000E+04
(PID.TID 0000.0001) %MON dynstat_eta_max              =   5.7932217885149E+00
(PID.TID 0000.0001) %MON dynstat_eta_min              =  -1.4198537948782E+01
(PID.TID 0000.0001) %MON dynstat_eta_mean             =  -2.5109082567740E+00
(PID.TID 0000.0001) %MON dynstat_eta_sd               =   4.9523177942020E+00
(PID.TID 0000.0001) %MON dynstat_eta_del2             =   2.0714100490132E-01
(PID.TID 0000.0001) %MON dynstat_uvel_max             =   1.8486833570872E-03
(PID.TID 0000.0001) %MON dynstat_uvel_min             =  -3.9876340619589E-03
(PID.TID 0000.0001) %MON dynstat_uvel_mean            =  -1.1759803381553E-07
(PID.TID 0000.0001) %MON dynstat_uvel_sd              =   1.7199132701745E-04
(PID.TID 0000.0001) %MON dynstat_uvel_del2            =   3.1296804616523E-07
(PID.TID 0000.0001) %MON dynstat_vvel_max             =   4.3905190815323E-03
(PID.TID 0000.0001) %MON dynstat_vvel_min             =  -2.3483242660749E-03
(PID.TID 0000.0001) %MON dynstat_vvel_mean            =   1.4956129696109E-05
(PID.TID 0000.0001) %MON dynstat_vvel_sd              =   1.5469370818001E-04
(PID.TID 0000.0001) %MON dynstat_vvel_del2            =   3.7459399990770E-07
(PID.TID 0000.0001) %MON dynstat_wvel_max             =   1.2852722384569E-04
(PID.TID 0000.0001) %MON dynstat_wvel_min             =  -1.3876690204017E-04
(PID.TID 0000.0001) %MON dynstat_wvel_mean            =   6.5585312315409E-09
(PID.TID 0000.0001) %MON dynstat_wvel_sd              =   2.5712085459223E-05
(PID.TID 0000.0001) %MON dynstat_wvel_del2            =   1.1905577225012E-07
(PID.TID 0000.0001) %MON dynstat_theta_max            =   1.2000000000000E+00
(PID.TID 0000.0001) %MON dynstat_theta_min            =  -1.0000000000000E+00
(PID.TID 0000.0001) %MON dynstat_theta_mean           =   5.6904276386063E-01
(PID.TID 0000.0001) %MON dynstat_theta_sd             =   8.6855229928648E-01
(PID.TID 0000.0001) %MON dynstat_theta_del2           =   1.0457601805931E-06
(PID.TID 0000.0001) %MON dynstat_salt_max             =   3.4700000000000E+01
(PID.TID 0000.0001) %MON dynstat_salt_min             =   3.4000000000000E+01
(PID.TID 0000.0001) %MON dynstat_salt_mean            =   3.4499231255823E+01
(PID.TID 0000.0001) %MON dynstat_salt_sd              =   2.7635492642189E-01
(PID.TID 0000.0001) %MON dynstat_salt_del2            =   3.7068930786511E-07
(PID.TID 0000.0001) %MON advcfl_uvel_max              =   3.9876340619589E-04
(PID.TID 0000.0001) %MON advcfl_vvel_max              =   4.3905190815323E-04
(PID.TID 0000.0001) %MON advcfl_wvel_max              =   6.9383451020084E-04
(PID.TID 0000.0001) %MON advcfl_W_hf_max              =   6.9383451020084E-04
(PID.TID 0000.0001) %MON pe_b_mean                    =  -8.3190911030640E-01
(PID.TID 0000.0001) %MON ke_max                       =   7.8903594748479E-06
(PID.TID 0000.0001) %MON ke_mean                      =   2.6572506057138E-08
(PID.TID 0000.0001) %MON ke_vol                       =   4.2725252868991E+12
(PID.TID 0000.0001) // =======================================================
(PID.TID 0000.0001) // End MONITOR dynamic field statistics
(PID.TID 0000.0001) // =======================================================
(PID.TID 0000.0001) // =======================================================
(PID.TID 0000.0001) // Begin OBCS MONITOR field statistics
(PID.TID 0000.0001) // =======================================================
(PID.TID 0000.0001) %MON obc_N_vVel_max               =   1.4726356780372E-05
(PID.TID 0000.0001) %MON obc_N_vVel_min               =   1.4726356780371E-05
(PID.TID 0000.0001) %MON obc_N_vVel_mean              =   1.4726356780372E-05
(PID.TID 0000.0001) %MON obc_N_vVel_sd                =  -9.8227697740672E-24
(PID.TID 0000.0001) %MON obc_N_vVel_Int               =   9.7193954750454E+02
(PID.TID 0000.0001) // =======================================================
(PID.TID 0000.0001) // End OBCS MONITOR field statistics
(PID.TID 0000.0001) // =======================================================
 cg2d: Sum(rhs),rhsMax =   4.52135330878289E+00  2.99887624907137E+02
(PID.TID 0000.0001)      cg2d_init_res =   6.32934874370532E-06
(PID.TID 0000.0001)      cg2d_iters(min,last) =      -1      77
(PID.TID 0000.0001)      cg2d_last_res =   8.99975686626478E-12
(PID.TID 0000.0001) // =======================================================
(PID.TID 0000.0001) // Begin MONITOR dynamic field statistics
(PID.TID 0000.0001) // =======================================================
(PID.TID 0000.0001) %MON time_tsnumber                =                   437
(PID.TID 0000.0001) %MON time_secondsf                =   4.3700000000000E+04
(PID.TID 0000.0001) %MON dynstat_eta_max              =   5.7931885018674E+00
(PID.TID 0000.0001) %MON dynstat_eta_min              =  -1.4198561395423E+01
(PID.TID 0000.0001) %MON dynstat_eta_mean             =  -2.5109220465499E+00
(PID.TID 0000.0001) %MON dynstat_eta_sd               =   4.9523223528870E+00
(PID.TID 0000.0001) %MON dynstat_eta_del2             =   2.0714101221455E-01
(PID.TID 0000.0001) %MON dynstat_uvel_max             =   1.8433446302254E-03
(PID.TID 0000.0001) %MON dynstat_uvel_min             =  -4.0012161321528E-03
(PID.TID 0000.0001) %MON dynstat_uvel_mean            =  -1.1763769839464E-07
(PID.TID 0000.0001) %MON dynstat_uvel_sd              =   1.7238679787815E-04
(PID.TID 0000.0001) %MON dynstat_uvel_del2            =   3.1323789282272E-07
(PID.TID 0000.0001) %MON dynstat_vvel_max             =   4.3892303988038E-03
(PID.TID 0000.0001) %MON dynstat_vvel_min             =  -2.3496229542843E-03
(PID.TID 0000.0001) %MON dynstat_vvel_mean            =   1.4954004019408E-05
(PID.TID 0000.0001) %MON dynstat_vvel_sd              =   1.5486522986732E-04
(PID.TID 0000.0001) %MON dynstat_vvel_del2            =   3.7422497365512E-07
(PID.TID 0000.0001) %MON dynstat_wvel_max             =   1.2708751596919E-04
(PID.TID 0000.0001) %MON dynstat_wvel_min             =  -1.3934723131526E-04
(PID.TID 0000.0001) %MON dynstat_wvel_mean            =   6.5581499522368E-09
(PID.TID 0000.0001) %MON dynstat_wvel_sd              =   2.5617312971886E-05
(PID.TID 0000.0001) %MON dynstat_wvel_del2            =   1.1873228654119E-07
(PID.TID 0000.0001) %MON dynstat_theta_max            =   1.2000000000000E+00
(PID.TID 0000.0001) %MON dynstat_theta_min            =  -1.0000000000000E+00
(PID.TID 0000.0001) %MON dynstat_theta_mean           =   5.6904245632977E-01
(PID.TID 0000.0001) %MON dynstat_theta_sd             =   8.6855214224827E-01
(PID.TID 0000.0001) %MON dynstat_theta_del2           =   1.0464654920151E-06
(PID.TID 0000.0001) %MON dynstat_salt_max             =   3.4700000000000E+01
(PID.TID 0000.0001) %MON dynstat_salt_min             =   3.4000000000000E+01
(PID.TID 0000.0001) %MON dynstat_salt_mean            =   3.4499231133179E+01
(PID.TID 0000.0001) %MON dynstat_salt_sd              =   2.7635486850173E-01
(PID.TID 0000.0001) %MON dynstat_salt_del2            =   3.7107636016896E-07
(PID.TID 0000.0001) %MON advcfl_uvel_max              =   4.0012161321528E-04
(PID.TID 0000.0001) %MON advcfl_vvel_max              =   4.3892303988038E-04
(PID.TID 0000.0001) %MON advcfl_wvel_max              =   6.9673615657631E-04
(PID.TID 0000.0001) %MON advcfl_W_hf_max              =   6.9673615657631E-04
(PID.TID 0000.0001) %MON pe_b_mean                    =  -8.3191306947589E-01
(PID.TID 0000.0001) %MON ke_max                       =   7.8696273917908E-06
(PID.TID 0000.0001) %MON ke_mean                      =   2.6665766873914E-08
(PID.TID 0000.0001) %MON ke_vol                       =   4.2725252049548E+12
(PID.TID 0000.0001) // =======================================================
(PID.TID 0000.0001) // End MONITOR dynamic field statistics
(PID.TID 0000.0001) // =======================================================
(PID.TID 0000.0001) // =======================================================
(PID.TID 0000.0001) // Begin OBCS MONITOR field statistics
(PID.TID 0000.0001) // =======================================================
(PID.TID 0000.0001) %MON obc_N_vVel_max               =   1.4724370757345E-05
(PID.TID 0000.0001) %MON obc_N_vVel_min               =   1.4724370757344E-05
(PID.TID 0000.0001) %MON obc_N_vVel_mean              =   1.4724370757344E-05
(PID.TID 0000.0001) %MON obc_N_vVel_sd                =   1.7390742119435E-12
(PID.TID 0000.0001) %MON obc_N_vVel_Int               =   9.7180846998473E+02
(PID.TID 0000.0001) // =======================================================
(PID.TID 0000.0001) // End OBCS MONITOR field statistics
(PID.TID 0000.0001) // =======================================================
 cg2d: Sum(rhs),rhsMax =   4.52137698763875E+00  2.99887700699546E+02
(PID.TID 0000.0001)      cg2d_init_res =   6.32957959513389E-06
(PID.TID 0000.0001)      cg2d_iters(min,last) =      -1      77
(PID.TID 0000.0001)      cg2d_last_res =   9.04296438127023E-12
(PID.TID 0000.0001) // =======================================================
(PID.TID 0000.0001) // Begin MONITOR dynamic field statistics
(PID.TID 0000.0001) // =======================================================
(PID.TID 0000.0001) %MON time_tsnumber                =                   438
(PID.TID 0000.0001) %MON time_secondsf                =   4.3800000000000E+04
(PID.TID 0000.0001) %MON dynstat_eta_max              =   5.7931552157709E+00
(PID.TID 0000.0001) %MON dynstat_eta_min              =  -1.4198584838563E+01
(PID.TID 0000.0001) %MON dynstat_eta_mean             =  -2.5109358311460E+00
(PID.TID 0000.0001) %MON dynstat_eta_sd               =   4.9523269106301E+00
(PID.TID 0000.0001) %MON dynstat_eta_del2             =   2.0714101956234E-01
(PID.TID 0000.0001) %MON dynstat_uvel_max             =   1.8379500436260E-03
(PID.TID 0000.0001) %MON dynstat_uvel_min             =  -4.0148229644528E-03
(PID.TID 0000.0001) %MON dynstat_uvel_mean            =  -1.1768148464869E-07
(PID.TID 0000.0001) %MON dynstat_uvel_sd              =   1.7278212111945E-04
(PID.TID 0000.0001) %MON dynstat_uvel_del2            =   3.1351199340570E-07
(PID.TID 0000.0001) %MON dynstat_vvel_max             =   4.3878650945750E-03
(PID.TID 0000.0001) %MON dynstat_vvel_min             =  -2.3508822606590E-03
(PID.TID 0000.0001) %MON dynstat_vvel_mean            =   1.4952347684741E-05
(PID.TID 0000.0001) %MON dynstat_vvel_sd              =   1.5507011276440E-04
(PID.TID 0000.0001) %MON dynstat_vvel_del2            =   3.7384536481105E-07
(PID.TID 0000.0001) %MON dynstat_wvel_max             =   1.2427141922974E-04
(PID.TID 0000.0001) %MON dynstat_wvel_min             =  -1.3992829130103E-04
(PID.TID 0000.0001) %MON dynstat_wvel_mean            =   6.5589484816650E-09
(PID.TID 0000.0001) %MON dynstat_wvel_sd              =   2.5528185250297E-05
(PID.TID 0000.0001) %MON dynstat_wvel_del2            =   1.1838590902507E-07
(PID.TID 0000.0001) %MON dynstat_theta_max            =   1.2000000000000E+00
(PID.TID 0000.0001) %MON dynstat_theta_min            =  -1.0000000000000E+00
(PID.TID 0000.0001) %MON dynstat_theta_mean           =   5.6904214849940E-01
(PID.TID 0000.0001) %MON dynstat_theta_sd             =   8.6855198492015E-01
(PID.TID 0000.0001) %MON dynstat_theta_del2           =   1.0471517271132E-06
(PID.TID 0000.0001) %MON dynstat_salt_max             =   3.4700000000000E+01
(PID.TID 0000.0001) %MON dynstat_salt_min             =   3.4000000000000E+01
(PID.TID 0000.0001) %MON dynstat_salt_mean            =   3.4499231010406E+01
(PID.TID 0000.0001) %MON dynstat_salt_sd              =   2.7635481046846E-01
(PID.TID 0000.0001) %MON dynstat_salt_del2            =   3.7145828816762E-07
(PID.TID 0000.0001) %MON advcfl_uvel_max              =   4.0148229644528E-04
(PID.TID 0000.0001) %MON advcfl_vvel_max              =   4.3878650945750E-04
(PID.TID 0000.0001) %MON advcfl_wvel_max              =   6.9964145650514E-04
(PID.TID 0000.0001) %MON advcfl_W_hf_max              =   6.9964145650514E-04
(PID.TID 0000.0001) %MON pe_b_mean                    =  -8.3191702706628E-01
(PID.TID 0000.0001) %MON ke_max                       =   7.8487472703714E-06
(PID.TID 0000.0001) %MON ke_mean                      =   2.6764364702811E-08
(PID.TID 0000.0001) %MON ke_vol                       =   4.2725251230435E+12
(PID.TID 0000.0001) // =======================================================
(PID.TID 0000.0001) // End MONITOR dynamic field statistics
(PID.TID 0000.0001) // =======================================================
(PID.TID 0000.0001) // =======================================================
(PID.TID 0000.0001) // Begin OBCS MONITOR field statistics
(PID.TID 0000.0001) // =======================================================
(PID.TID 0000.0001) %MON obc_N_vVel_max               =   1.4722733030690E-05
(PID.TID 0000.0001) %MON obc_N_vVel_min               =   1.4722733030690E-05
(PID.TID 0000.0001) %MON obc_N_vVel_mean              =   1.4722733030690E-05
(PID.TID 0000.0001) %MON obc_N_vVel_sd                =   3.3106106863127E-12
(PID.TID 0000.0001) %MON obc_N_vVel_Int               =   9.7170038002551E+02
(PID.TID 0000.0001) // =======================================================
(PID.TID 0000.0001) // End OBCS MONITOR field statistics
(PID.TID 0000.0001) // =======================================================
 cg2d: Sum(rhs),rhsMax =   4.52140065783362E+00  2.99887776500474E+02
(PID.TID 0000.0001)      cg2d_init_res =   6.32937409587009E-06
(PID.TID 0000.0001)      cg2d_iters(min,last) =      -1      77
(PID.TID 0000.0001)      cg2d_last_res =   9.08264477108220E-12
(PID.TID 0000.0001) // =======================================================
(PID.TID 0000.0001) // Begin MONITOR dynamic field statistics
(PID.TID 0000.0001) // =======================================================
(PID.TID 0000.0001) %MON time_tsnumber                =                   439
(PID.TID 0000.0001) %MON time_secondsf                =   4.3900000000000E+04
(PID.TID 0000.0001) %MON dynstat_eta_max              =   5.7931219297871E+00
(PID.TID 0000.0001) %MON dynstat_eta_min              =  -1.4198608279001E+01
(PID.TID 0000.0001) %MON dynstat_eta_mean             =  -2.5109496110102E+00
(PID.TID 0000.0001) %MON dynstat_eta_sd               =   4.9523314676134E+00
(PID.TID 0000.0001) %MON dynstat_eta_del2             =   2.0714102694440E-01
(PID.TID 0000.0001) %MON dynstat_uvel_max             =   1.8324999262145E-03
(PID.TID 0000.0001) %MON dynstat_uvel_min             =  -4.0284546974574E-03
(PID.TID 0000.0001) %MON dynstat_uvel_mean            =  -1.1772867086477E-07
(PID.TID 0000.0001) %MON dynstat_uvel_sd              =   1.7317743114616E-04
(PID.TID 0000.0001) %MON dynstat_uvel_del2            =   3.1379033363446E-07
(PID.TID 0000.0001) %MON dynstat_vvel_max             =   4.3864237769844E-03
(PID.TID 0000.0001) %MON dynstat_vvel_min             =  -2.3521022064568E-03
(PID.TID 0000.0001) %MON dynstat_vvel_mean            =   1.4951213541391E-05
(PID.TID 0000.0001) %MON dynstat_vvel_sd              =   1.5530982282791E-04
(PID.TID 0000.0001) %MON dynstat_vvel_del2            =   3.7345569940766E-07
(PID.TID 0000.0001) %MON dynstat_wvel_max             =   1.2009907068211E-04
(PID.TID 0000.0001) %MON dynstat_wvel_min             =  -1.4051008437366E-04
(PID.TID 0000.0001) %MON dynstat_wvel_mean            =   6.5608958617378E-09
(PID.TID 0000.0001) %MON dynstat_wvel_sd              =   2.5446116643419E-05
(PID.TID 0000.0001) %MON dynstat_wvel_del2            =   1.1801560003066E-07
(PID.TID 0000.0001) %MON dynstat_theta_max            =   1.2000000000000E+00
(PID.TID 0000.0001) %MON dynstat_theta_min            =  -1.0000000000000E+00
(PID.TID 0000.0001) %MON dynstat_theta_mean           =   5.6904184037916E-01
(PID.TID 0000.0001) %MON dynstat_theta_sd             =   8.6855182731031E-01
(PID.TID 0000.0001) %MON dynstat_theta_del2           =   1.0478060728399E-06
(PID.TID 0000.0001) %MON dynstat_salt_max             =   3.4700000000000E+01
(PID.TID 0000.0001) %MON dynstat_salt_min             =   3.4000000000000E+01
(PID.TID 0000.0001) %MON dynstat_salt_mean            =   3.4499230887508E+01
(PID.TID 0000.0001) %MON dynstat_salt_sd              =   2.7635475232496E-01
(PID.TID 0000.0001) %MON dynstat_salt_del2            =   3.7183166230869E-07
(PID.TID 0000.0001) %MON advcfl_uvel_max              =   4.0284546974574E-04
(PID.TID 0000.0001) %MON advcfl_vvel_max              =   4.3864237769844E-04
(PID.TID 0000.0001) %MON advcfl_wvel_max              =   7.0255042186831E-04
(PID.TID 0000.0001) %MON advcfl_W_hf_max              =   7.0255042186831E-04
(PID.TID 0000.0001) %MON pe_b_mean                    =  -8.3192098321145E-01
(PID.TID 0000.0001) %MON ke_max                       =   7.8277211122996E-06
(PID.TID 0000.0001) %MON ke_mean                      =   2.6868571129407E-08
(PID.TID 0000.0001) %MON ke_vol                       =   4.2725250411630E+12
(PID.TID 0000.0001) // =======================================================
(PID.TID 0000.0001) // End MONITOR dynamic field statistics
(PID.TID 0000.0001) // =======================================================
(PID.TID 0000.0001) // =======================================================
(PID.TID 0000.0001) // Begin OBCS MONITOR field statistics
(PID.TID 0000.0001) // =======================================================
(PID.TID 0000.0001) %MON obc_N_vVel_max               =   1.4721495092494E-05
(PID.TID 0000.0001) %MON obc_N_vVel_min               =   1.4721495092493E-05
(PID.TID 0000.0001) %MON obc_N_vVel_mean              =   1.4721495092493E-05
(PID.TID 0000.0001) %MON obc_N_vVel_sd                =   2.3847152264583E-12
(PID.TID 0000.0001) %MON obc_N_vVel_Int               =   9.7161867610457E+02
(PID.TID 0000.0001) // =======================================================
(PID.TID 0000.0001) // End OBCS MONITOR field statistics
(PID.TID 0000.0001) // =======================================================
 cg2d: Sum(rhs),rhsMax =   4.52142432022497E+00  2.99887852310952E+02
(PID.TID 0000.0001)      cg2d_init_res =   6.32858846004107E-06
(PID.TID 0000.0001)      cg2d_iters(min,last) =      -1      77
(PID.TID 0000.0001)      cg2d_last_res =   9.11865009171156E-12
(PID.TID 0000.0001) // =======================================================
(PID.TID 0000.0001) // Begin MONITOR dynamic field statistics
(PID.TID 0000.0001) // =======================================================
(PID.TID 0000.0001) %MON time_tsnumber                =                   440
(PID.TID 0000.0001) %MON time_secondsf                =   4.4000000000000E+04
(PID.TID 0000.0001) %MON dynstat_eta_max              =   5.7930886435063E+00
(PID.TID 0000.0001) %MON dynstat_eta_min              =  -1.4198631717589E+01
(PID.TID 0000.0001) %MON dynstat_eta_mean             =  -2.5109633866274E+00
(PID.TID 0000.0001) %MON dynstat_eta_sd               =   4.9523360240155E+00
(PID.TID 0000.0001) %MON dynstat_eta_del2             =   2.0714103436033E-01
(PID.TID 0000.0001) %MON dynstat_uvel_max             =   1.8269946086670E-03
(PID.TID 0000.0001) %MON dynstat_uvel_min             =  -4.0421114687810E-03
(PID.TID 0000.0001) %MON dynstat_uvel_mean            =  -1.1777842315724E-07
(PID.TID 0000.0001) %MON dynstat_uvel_sd              =   1.7357287274776E-04
(PID.TID 0000.0001) %MON dynstat_uvel_del2            =   3.1407289902836E-07
(PID.TID 0000.0001) %MON dynstat_vvel_max             =   4.3849070386113E-03
(PID.TID 0000.0001) %MON dynstat_vvel_min             =  -2.3532828324235E-03
(PID.TID 0000.0001) %MON dynstat_vvel_mean            =   1.4950635564259E-05
(PID.TID 0000.0001) %MON dynstat_vvel_sd              =   1.5558543182501E-04
(PID.TID 0000.0001) %MON dynstat_vvel_del2            =   3.7305881372507E-07
(PID.TID 0000.0001) %MON dynstat_wvel_max             =   1.1990202665042E-04
(PID.TID 0000.0001) %MON dynstat_wvel_min             =  -1.4109261250905E-04
(PID.TID 0000.0001) %MON dynstat_wvel_mean            =   6.5639126285040E-09
(PID.TID 0000.0001) %MON dynstat_wvel_sd              =   2.5372712857965E-05
(PID.TID 0000.0001) %MON dynstat_wvel_del2            =   1.1762355888325E-07
(PID.TID 0000.0001) %MON dynstat_theta_max            =   1.2000000000000E+00
(PID.TID 0000.0001) %MON dynstat_theta_min            =  -1.0000000000000E+00
(PID.TID 0000.0001) %MON dynstat_theta_mean           =   5.6904153197778E-01
(PID.TID 0000.0001) %MON dynstat_theta_sd             =   8.6855166941135E-01
(PID.TID 0000.0001) %MON dynstat_theta_del2           =   1.0484131418327E-06
(PID.TID 0000.0001) %MON dynstat_salt_max             =   3.4700000000000E+01
(PID.TID 0000.0001) %MON dynstat_salt_min             =   3.4000000000000E+01
(PID.TID 0000.0001) %MON dynstat_salt_mean            =   3.4499230764488E+01
(PID.TID 0000.0001) %MON dynstat_salt_sd              =   2.7635469406916E-01
(PID.TID 0000.0001) %MON dynstat_salt_del2            =   3.7219211411232E-07
(PID.TID 0000.0001) %MON advcfl_uvel_max              =   4.0421114687810E-04
(PID.TID 0000.0001) %MON advcfl_vvel_max              =   4.3849070386113E-04
(PID.TID 0000.0001) %MON advcfl_wvel_max              =   7.0546306254526E-04
(PID.TID 0000.0001) %MON advcfl_W_hf_max              =   7.0546306254526E-04
(PID.TID 0000.0001) %MON pe_b_mean                    =  -8.3192493805060E-01
(PID.TID 0000.0001) %MON ke_max                       =   7.8065508663687E-06
(PID.TID 0000.0001) %MON ke_mean                      =   2.6978603052836E-08
(PID.TID 0000.0001) %MON ke_vol                       =   4.2725249593106E+12
(PID.TID 0000.0001) // =======================================================
(PID.TID 0000.0001) // End MONITOR dynamic field statistics
(PID.TID 0000.0001) // =======================================================
(PID.TID 0000.0001) // =======================================================
(PID.TID 0000.0001) // Begin OBCS MONITOR field statistics
(PID.TID 0000.0001) // =======================================================
(PID.TID 0000.0001) %MON obc_N_vVel_max               =   1.4720695184657E-05
(PID.TID 0000.0001) %MON obc_N_vVel_min               =   1.4720695184656E-05
(PID.TID 0000.0001) %MON obc_N_vVel_mean              =   1.4720695184656E-05
(PID.TID 0000.0001) %MON obc_N_vVel_sd                =   4.4264930543095E-12
(PID.TID 0000.0001) %MON obc_N_vVel_Int               =   9.7156588218731E+02
(PID.TID 0000.0001) // =======================================================
(PID.TID 0000.0001) // End OBCS MONITOR field statistics
(PID.TID 0000.0001) // =======================================================
 cg2d: Sum(rhs),rhsMax =   4.52144797573037E+00  2.99887928130956E+02
(PID.TID 0000.0001)      cg2d_init_res =   6.32712909357042E-06
(PID.TID 0000.0001)      cg2d_iters(min,last) =      -1      77
(PID.TID 0000.0001)      cg2d_last_res =   9.15283168901606E-12
(PID.TID 0000.0001) // =======================================================
(PID.TID 0000.0001) // Begin MONITOR dynamic field statistics
(PID.TID 0000.0001) // =======================================================
(PID.TID 0000.0001) %MON time_tsnumber                =                   441
(PID.TID 0000.0001) %MON time_secondsf                =   4.4100000000000E+04
(PID.TID 0000.0001) %MON dynstat_eta_max              =   5.7930553565200E+00
(PID.TID 0000.0001) %MON dynstat_eta_min              =  -1.4198655151626E+01
(PID.TID 0000.0001) %MON dynstat_eta_mean             =  -2.5109771585068E+00
(PID.TID 0000.0001) %MON dynstat_eta_sd               =   4.9523405800096E+00
(PID.TID 0000.0001) %MON dynstat_eta_del2             =   2.0714104180969E-01
(PID.TID 0000.0001) %MON dynstat_uvel_max             =   1.8214344236260E-03
(PID.TID 0000.0001) %MON dynstat_uvel_min             =  -4.0557934144188E-03
(PID.TID 0000.0001) %MON dynstat_uvel_mean            =  -1.1782981907049E-07
(PID.TID 0000.0001) %MON dynstat_uvel_sd              =   1.7396860078788E-04
(PID.TID 0000.0001) %MON dynstat_uvel_del2            =   3.1435967634096E-07
(PID.TID 0000.0001) %MON dynstat_vvel_max             =   4.3833154524933E-03
(PID.TID 0000.0001) %MON dynstat_vvel_min             =  -2.3544241971081E-03
(PID.TID 0000.0001) %MON dynstat_vvel_mean            =   1.4950628028378E-05
(PID.TID 0000.0001) %MON dynstat_vvel_sd              =   1.5589754570126E-04
(PID.TID 0000.0001) %MON dynstat_vvel_del2            =   3.7265978754693E-07
(PID.TID 0000.0001) %MON dynstat_wvel_max             =   1.2473103629395E-04
(PID.TID 0000.0001) %MON dynstat_wvel_min             =  -1.4167587759240E-04
(PID.TID 0000.0001) %MON dynstat_wvel_mean            =   6.5678805704529E-09
(PID.TID 0000.0001) %MON dynstat_wvel_sd              =   2.5309728995989E-05
(PID.TID 0000.0001) %MON dynstat_wvel_del2            =   1.1721520204908E-07
(PID.TID 0000.0001) %MON dynstat_theta_max            =   1.2000000000000E+00
(PID.TID 0000.0001) %MON dynstat_theta_min            =  -1.0000000000000E+00
(PID.TID 0000.0001) %MON dynstat_theta_mean           =   5.6904122330365E-01
(PID.TID 0000.0001) %MON dynstat_theta_sd             =   8.6855151118376E-01
(PID.TID 0000.0001) %MON dynstat_theta_del2           =   1.0489553776489E-06
(PID.TID 0000.0001) %MON dynstat_salt_max             =   3.4700000000000E+01
(PID.TID 0000.0001) %MON dynstat_salt_min             =   3.4000000000000E+01
(PID.TID 0000.0001) %MON dynstat_salt_mean            =   3.4499230641347E+01
(PID.TID 0000.0001) %MON dynstat_salt_sd              =   2.7635463568819E-01
(PID.TID 0000.0001) %MON dynstat_salt_del2            =   3.7253467023658E-07
(PID.TID 0000.0001) %MON advcfl_uvel_max              =   4.0557934144188E-04
(PID.TID 0000.0001) %MON advcfl_vvel_max              =   4.3833154524933E-04
(PID.TID 0000.0001) %MON advcfl_wvel_max              =   7.0837938796200E-04
(PID.TID 0000.0001) %MON advcfl_W_hf_max              =   7.0837938796200E-04
(PID.TID 0000.0001) %MON pe_b_mean                    =  -8.3192889172495E-01
(PID.TID 0000.0001) %MON ke_max                       =   7.7852384198721E-06
(PID.TID 0000.0001) %MON ke_mean                      =   2.7094611380175E-08
(PID.TID 0000.0001) %MON ke_vol                       =   4.2725248774834E+12
(PID.TID 0000.0001) // =======================================================
(PID.TID 0000.0001) // End MONITOR dynamic field statistics
(PID.TID 0000.0001) // =======================================================
(PID.TID 0000.0001) // =======================================================
(PID.TID 0000.0001) // Begin OBCS MONITOR field statistics
(PID.TID 0000.0001) // =======================================================
(PID.TID 0000.0001) %MON obc_N_vVel_max               =   1.4720356084308E-05
(PID.TID 0000.0001) %MON obc_N_vVel_min               =   1.4720356084308E-05
(PID.TID 0000.0001) %MON obc_N_vVel_mean              =   1.4720356084308E-05
(PID.TID 0000.0001) %MON obc_N_vVel_sd                =  -1.0753347963189E-23
(PID.TID 0000.0001) %MON obc_N_vVel_Int               =   9.7154350156434E+02
(PID.TID 0000.0001) // =======================================================
(PID.TID 0000.0001) // End OBCS MONITOR field statistics
(PID.TID 0000.0001) // =======================================================
 cg2d: Sum(rhs),rhsMax =   4.52147162530057E+00  2.99888003959515E+02
(PID.TID 0000.0001)      cg2d_init_res =   6.32496273737403E-06
(PID.TID 0000.0001)      cg2d_iters(min,last) =      -1      77
(PID.TID 0000.0001)      cg2d_last_res =   9.18587429933092E-12
(PID.TID 0000.0001) // =======================================================
(PID.TID 0000.0001) // Begin MONITOR dynamic field statistics
(PID.TID 0000.0001) // =======================================================
(PID.TID 0000.0001) %MON time_tsnumber                =                   442
(PID.TID 0000.0001) %MON time_secondsf                =   4.4200000000000E+04
(PID.TID 0000.0001) %MON dynstat_eta_max              =   5.7930220684497E+00
(PID.TID 0000.0001) %MON dynstat_eta_min              =  -1.4198678577502E+01
(PID.TID 0000.0001) %MON dynstat_eta_mean             =  -2.5109909271685E+00
(PID.TID 0000.0001) %MON dynstat_eta_sd               =   4.9523451357530E+00
(PID.TID 0000.0001) %MON dynstat_eta_del2             =   2.0714104929198E-01
(PID.TID 0000.0001) %MON dynstat_uvel_max             =   1.8158197052165E-03
(PID.TID 0000.0001) %MON dynstat_uvel_min             =  -4.0695006687548E-03
(PID.TID 0000.0001) %MON dynstat_uvel_mean            =  -1.1788182311770E-07
(PID.TID 0000.0001) %MON dynstat_uvel_sd              =   1.7436477937754E-04
(PID.TID 0000.0001) %MON dynstat_uvel_del2            =   3.1465065404992E-07
(PID.TID 0000.0001) %MON dynstat_vvel_max             =   4.3816495710063E-03
(PID.TID 0000.0001) %MON dynstat_vvel_min             =  -2.3555263788957E-03
(PID.TID 0000.0001) %MON dynstat_vvel_mean            =   1.4951185341957E-05
(PID.TID 0000.0001) %MON dynstat_vvel_sd              =   1.5624622965820E-04
(PID.TID 0000.0001) %MON dynstat_vvel_del2            =   3.7226561663299E-07
(PID.TID 0000.0001) %MON dynstat_wvel_max             =   1.2771544428689E-04
(PID.TID 0000.0001) %MON dynstat_wvel_min             =  -1.4225988117258E-04
(PID.TID 0000.0001) %MON dynstat_wvel_mean            =   6.5726506019447E-09
(PID.TID 0000.0001) %MON dynstat_wvel_sd              =   2.5258998241761E-05
(PID.TID 0000.0001) %MON dynstat_wvel_del2            =   1.1679877054807E-07
(PID.TID 0000.0001) %MON dynstat_theta_max            =   1.2000000000000E+00
(PID.TID 0000.0001) %MON dynstat_theta_min            =  -1.0000000000000E+00
(PID.TID 0000.0001) %MON dynstat_theta_mean           =   5.6904091436527E-01
(PID.TID 0000.0001) %MON dynstat_theta_sd             =   8.6855135262058E-01
(PID.TID 0000.0001) %MON dynstat_theta_del2           =   1.0494140149311E-06
(PID.TID 0000.0001) %MON dynstat_salt_max             =   3.4700000000000E+01
(PID.TID 0000.0001) %MON dynstat_salt_min             =   3.4000000000000E+01
(PID.TID 0000.0001) %MON dynstat_salt_mean            =   3.4499230518089E+01
(PID.TID 0000.0001) %MON dynstat_salt_sd              =   2.7635457718012E-01
(PID.TID 0000.0001) %MON dynstat_salt_del2            =   3.7285401751479E-07
(PID.TID 0000.0001) %MON advcfl_uvel_max              =   4.0695006687548E-04
(PID.TID 0000.0001) %MON advcfl_vvel_max              =   4.3816495710063E-04
(PID.TID 0000.0001) %MON advcfl_wvel_max              =   7.1129940586292E-04
(PID.TID 0000.0001) %MON advcfl_W_hf_max              =   7.1129940586292E-04
(PID.TID 0000.0001) %MON pe_b_mean                    =  -8.3193284437401E-01
(PID.TID 0000.0001) %MON ke_max                       =   7.7637856011503E-06
(PID.TID 0000.0001) %MON ke_mean                      =   2.7216668773064E-08
(PID.TID 0000.0001) %MON ke_vol                       =   4.2725247956785E+12
(PID.TID 0000.0001) // =======================================================
(PID.TID 0000.0001) // End MONITOR dynamic field statistics
(PID.TID 0000.0001) // =======================================================
(PID.TID 0000.0001) // =======================================================
(PID.TID 0000.0001) // Begin OBCS MONITOR field statistics
(PID.TID 0000.0001) // =======================================================
(PID.TID 0000.0001) %MON obc_N_vVel_max               =   1.4720484145948E-05
(PID.TID 0000.0001) %MON obc_N_vVel_min               =   1.4720484145948E-05
(PID.TID 0000.0001) %MON obc_N_vVel_mean              =   1.4720484145948E-05
(PID.TID 0000.0001) %MON obc_N_vVel_sd                =  -1.7758533775748E-23
(PID.TID 0000.0001) %MON obc_N_vVel_Int               =   9.7155195363258E+02
(PID.TID 0000.0001) // =======================================================
(PID.TID 0000.0001) // End OBCS MONITOR field statistics
(PID.TID 0000.0001) // =======================================================
 cg2d: Sum(rhs),rhsMax =   4.52149526988104E+00  2.99888079794844E+02
(PID.TID 0000.0001)      cg2d_init_res =   6.32212303825957E-06
(PID.TID 0000.0001)      cg2d_iters(min,last) =      -1      77
(PID.TID 0000.0001)      cg2d_last_res =   9.21670719810809E-12
(PID.TID 0000.0001) // =======================================================
(PID.TID 0000.0001) // Begin MONITOR dynamic field statistics
(PID.TID 0000.0001) // =======================================================
(PID.TID 0000.0001) %MON time_tsnumber                =                   443
(PID.TID 0000.0001) %MON time_secondsf                =   4.4300000000000E+04
(PID.TID 0000.0001) %MON dynstat_eta_max              =   5.7929887789533E+00
(PID.TID 0000.0001) %MON dynstat_eta_min              =  -1.4198701996073E+01
(PID.TID 0000.0001) %MON dynstat_eta_mean             =  -2.5110046931224E+00
(PID.TID 0000.0001) %MON dynstat_eta_sd               =   4.9523496913835E+00
(PID.TID 0000.0001) %MON dynstat_eta_del2             =   2.0714105680659E-01
(PID.TID 0000.0001) %MON dynstat_uvel_max             =   1.8101507886807E-03
(PID.TID 0000.0001) %MON dynstat_uvel_min             =  -4.0832333647476E-03
(PID.TID 0000.0001) %MON dynstat_uvel_mean            =  -1.1793333730535E-07
(PID.TID 0000.0001) %MON dynstat_uvel_sd              =   1.7476158081696E-04
(PID.TID 0000.0001) %MON dynstat_uvel_del2            =   3.1494582254129E-07
(PID.TID 0000.0001) %MON dynstat_vvel_max             =   4.3799099619495E-03
(PID.TID 0000.0001) %MON dynstat_vvel_min             =  -2.3565894764097E-03
(PID.TID 0000.0001) %MON dynstat_vvel_mean            =   1.4952282515692E-05
(PID.TID 0000.0001) %MON dynstat_vvel_sd              =   1.5663093353736E-04
(PID.TID 0000.0001) %MON dynstat_vvel_del2            =   3.7188465933950E-07
(PID.TID 0000.0001) %MON dynstat_wvel_max             =   1.2873666609987E-04
(PID.TID 0000.0001) %MON dynstat_wvel_min             =  -1.4284462451706E-04
(PID.TID 0000.0001) %MON dynstat_wvel_mean            =   6.5780503362264E-09
(PID.TID 0000.0001) %MON dynstat_wvel_sd              =   2.5222334927141E-05
(PID.TID 0000.0001) %MON dynstat_wvel_del2            =   1.1638461215269E-07
(PID.TID 0000.0001) %MON dynstat_theta_max            =   1.2000000000000E+00
(PID.TID 0000.0001) %MON dynstat_theta_min            =  -1.0000000000000E+00
(PID.TID 0000.0001) %MON dynstat_theta_mean           =   5.6904060517103E-01
(PID.TID 0000.0001) %MON dynstat_theta_sd             =   8.6855119366178E-01
(PID.TID 0000.0001) %MON dynstat_theta_del2           =   1.0497698949922E-06
(PID.TID 0000.0001) %MON dynstat_salt_max             =   3.4700000000000E+01
(PID.TID 0000.0001) %MON dynstat_salt_min             =   3.4000000000000E+01
(PID.TID 0000.0001) %MON dynstat_salt_mean            =   3.4499230394717E+01
(PID.TID 0000.0001) %MON dynstat_salt_sd              =   2.7635451852559E-01
(PID.TID 0000.0001) %MON dynstat_salt_del2            =   3.7314475073942E-07
(PID.TID 0000.0001) %MON advcfl_uvel_max              =   4.0832333647476E-04
(PID.TID 0000.0001) %MON advcfl_vvel_max              =   4.3799099619495E-04
(PID.TID 0000.0001) %MON advcfl_wvel_max              =   7.1422312258529E-04
(PID.TID 0000.0001) %MON advcfl_W_hf_max              =   7.1422312258529E-04
(PID.TID 0000.0001) %MON pe_b_mean                    =  -8.3193679613016E-01
(PID.TID 0000.0001) %MON ke_max                       =   7.7421941839094E-06
(PID.TID 0000.0001) %MON ke_mean                      =   2.7344756985781E-08
(PID.TID 0000.0001) %MON ke_vol                       =   4.2725247138926E+12
(PID.TID 0000.0001) // =======================================================
(PID.TID 0000.0001) // End MONITOR dynamic field statistics
(PID.TID 0000.0001) // =======================================================
(PID.TID 0000.0001) // =======================================================
(PID.TID 0000.0001) // Begin OBCS MONITOR field statistics
(PID.TID 0000.0001) // =======================================================
(PID.TID 0000.0001) %MON obc_N_vVel_max               =   1.4721069274992E-05
(PID.TID 0000.0001) %MON obc_N_vVel_min               =   1.4721069274992E-05
(PID.TID 0000.0001) %MON obc_N_vVel_mean              =   1.4721069274992E-05
(PID.TID 0000.0001) %MON obc_N_vVel_sd                =   8.1980744550128E-13
(PID.TID 0000.0001) %MON obc_N_vVel_Int               =   9.7159057214949E+02
(PID.TID 0000.0001) // =======================================================
(PID.TID 0000.0001) // End OBCS MONITOR field statistics
(PID.TID 0000.0001) // =======================================================
 cg2d: Sum(rhs),rhsMax =   4.52151891037575E+00  2.99888155634538E+02
(PID.TID 0000.0001)      cg2d_init_res =   6.31867341990475E-06
(PID.TID 0000.0001)      cg2d_iters(min,last) =      -1      77
(PID.TID 0000.0001)      cg2d_last_res =   9.24371123968813E-12
(PID.TID 0000.0001) // =======================================================
(PID.TID 0000.0001) // Begin MONITOR dynamic field statistics
(PID.TID 0000.0001) // =======================================================
(PID.TID 0000.0001) %MON time_tsnumber                =                   444
(PID.TID 0000.0001) %MON time_secondsf                =   4.4400000000000E+04
(PID.TID 0000.0001) %MON dynstat_eta_max              =   5.7929554877436E+00
(PID.TID 0000.0001) %MON dynstat_eta_min              =  -1.4198725408067E+01
(PID.TID 0000.0001) %MON dynstat_eta_mean             =  -2.5110184568505E+00
(PID.TID 0000.0001) %MON dynstat_eta_sd               =   4.9523542470185E+00
(PID.TID 0000.0001) %MON dynstat_eta_del2             =   2.0714106435295E-01
(PID.TID 0000.0001) %MON dynstat_uvel_max             =   1.8044280102972E-03
(PID.TID 0000.0001) %MON dynstat_uvel_min             =  -4.0969916339364E-03
(PID.TID 0000.0001) %MON dynstat_uvel_mean            =  -1.1798321610623E-07
(PID.TID 0000.0001) %MON dynstat_uvel_sd              =   1.7515918430432E-04
(PID.TID 0000.0001) %MON dynstat_uvel_del2            =   3.1524517475663E-07
(PID.TID 0000.0001) %MON dynstat_vvel_max             =   4.3780971822667E-03
(PID.TID 0000.0001) %MON dynstat_vvel_min             =  -2.3576136071313E-03
(PID.TID 0000.0001) %MON dynstat_vvel_mean            =   1.4953876310420E-05
(PID.TID 0000.0001) %MON dynstat_vvel_sd              =   1.5705042228035E-04
(PID.TID 0000.0001) %MON dynstat_vvel_del2            =   3.7152592652779E-07
(PID.TID 0000.0001) %MON dynstat_wvel_max             =   1.2778455471527E-04
(PID.TID 0000.0001) %MON dynstat_wvel_min             =  -1.4343010873809E-04
(PID.TID 0000.0001) %MON dynstat_wvel_mean            =   6.5838882734481E-09
(PID.TID 0000.0001) %MON dynstat_wvel_sd              =   2.5201419638925E-05
(PID.TID 0000.0001) %MON dynstat_wvel_del2            =   1.1598422655743E-07
(PID.TID 0000.0001) %MON dynstat_theta_max            =   1.2000000000000E+00
(PID.TID 0000.0001) %MON dynstat_theta_min            =  -1.0000000000000E+00
(PID.TID 0000.0001) %MON dynstat_theta_mean           =   5.6904029572901E-01
(PID.TID 0000.0001) %MON dynstat_theta_sd             =   8.6855103431738E-01
(PID.TID 0000.0001) %MON dynstat_theta_del2           =   1.0500042743014E-06
(PID.TID 0000.0001) %MON dynstat_salt_max             =   3.4700000000000E+01
(PID.TID 0000.0001) %MON dynstat_salt_min             =   3.4000000000000E+01
(PID.TID 0000.0001) %MON dynstat_salt_mean            =   3.4499230271233E+01
(PID.TID 0000.0001) %MON dynstat_salt_sd              =   2.7635445972782E-01
(PID.TID 0000.0001) %MON dynstat_salt_del2            =   3.7340159958432E-07
(PID.TID 0000.0001) %MON advcfl_uvel_max              =   4.0969916339364E-04
(PID.TID 0000.0001) %MON advcfl_vvel_max              =   4.3780971822667E-04
(PID.TID 0000.0001) %MON advcfl_wvel_max              =   7.1715054369046E-04
(PID.TID 0000.0001) %MON advcfl_W_hf_max              =   7.1715054369046E-04
(PID.TID 0000.0001) %MON pe_b_mean                    =  -8.3194074711420E-01
(PID.TID 0000.0001) %MON ke_max                       =   7.7204658932457E-06
(PID.TID 0000.0001) %MON ke_mean                      =   2.7478754486455E-08
(PID.TID 0000.0001) %MON ke_vol                       =   4.2725246321229E+12
(PID.TID 0000.0001) // =======================================================
(PID.TID 0000.0001) // End MONITOR dynamic field statistics
(PID.TID 0000.0001) // =======================================================
(PID.TID 0000.0001) // =======================================================
(PID.TID 0000.0001) // Begin OBCS MONITOR field statistics
(PID.TID 0000.0001) // =======================================================
(PID.TID 0000.0001) %MON obc_N_vVel_max               =   1.4722085739922E-05
(PID.TID 0000.0001) %MON obc_N_vVel_min               =   1.4722085739921E-05
(PID.TID 0000.0001) %MON obc_N_vVel_mean              =   1.4722085739922E-05
(PID.TID 0000.0001) %MON obc_N_vVel_sd                =  -1.3622630712983E-23
(PID.TID 0000.0001) %MON obc_N_vVel_Int               =   9.7165765883483E+02
(PID.TID 0000.0001) // =======================================================
(PID.TID 0000.0001) // End OBCS MONITOR field statistics
(PID.TID 0000.0001) // =======================================================
 cg2d: Sum(rhs),rhsMax =   4.52154254761249E+00  2.99888231475717E+02
(PID.TID 0000.0001)      cg2d_init_res =   6.31470550103417E-06
(PID.TID 0000.0001)      cg2d_iters(min,last) =      -1      77
(PID.TID 0000.0001)      cg2d_last_res =   9.26732706550613E-12
(PID.TID 0000.0001) // =======================================================
(PID.TID 0000.0001) // Begin MONITOR dynamic field statistics
(PID.TID 0000.0001) // =======================================================
(PID.TID 0000.0001) %MON time_tsnumber                =                   445
(PID.TID 0000.0001) %MON time_secondsf                =   4.4500000000000E+04
(PID.TID 0000.0001) %MON dynstat_eta_max              =   5.7929221945899E+00
(PID.TID 0000.0001) %MON dynstat_eta_min              =  -1.4198748814096E+01
(PID.TID 0000.0001) %MON dynstat_eta_mean             =  -2.5110322187884E+00
(PID.TID 0000.0001) %MON dynstat_eta_sd               =   4.9523588027461E+00
(PID.TID 0000.0001) %MON dynstat_eta_del2             =   2.0714107193040E-01
(PID.TID 0000.0001) %MON dynstat_uvel_max             =   1.7986517073781E-03
(PID.TID 0000.0001) %MON dynstat_uvel_min             =  -4.1107756067289E-03
(PID.TID 0000.0001) %MON dynstat_uvel_mean            =  -1.1803036180095E-07
(PID.TID 0000.0001) %MON dynstat_uvel_sd              =   1.7555777439875E-04
(PID.TID 0000.0001) %MON dynstat_uvel_del2            =   3.1554870674501E-07
(PID.TID 0000.0001) %MON dynstat_vvel_max             =   4.3762117723221E-03
(PID.TID 0000.0001) %MON dynstat_vvel_min             =  -2.3585989056976E-03
(PID.TID 0000.0001) %MON dynstat_vvel_mean            =   1.4955907019697E-05
(PID.TID 0000.0001) %MON dynstat_vvel_sd              =   1.5750271579562E-04
(PID.TID 0000.0001) %MON dynstat_vvel_del2            =   3.7119829290131E-07
(PID.TID 0000.0001) %MON dynstat_wvel_max             =   1.2833560518597E-04
(PID.TID 0000.0001) %MON dynstat_wvel_min             =  -1.4401633470412E-04
(PID.TID 0000.0001) %MON dynstat_wvel_mean            =   6.5899619261565E-09
(PID.TID 0000.0001) %MON dynstat_wvel_sd              =   2.5197675506571E-05
(PID.TID 0000.0001) %MON dynstat_wvel_del2            =   1.1560918439778E-07
(PID.TID 0000.0001) %MON dynstat_theta_max            =   1.2000000000000E+00
(PID.TID 0000.0001) %MON dynstat_theta_min            =  -1.0000000000000E+00
(PID.TID 0000.0001) %MON dynstat_theta_mean           =   5.6903998604676E-01
(PID.TID 0000.0001) %MON dynstat_theta_sd             =   8.6855087462879E-01
(PID.TID 0000.0001) %MON dynstat_theta_del2           =   1.0501000755613E-06
(PID.TID 0000.0001) %MON dynstat_salt_max             =   3.4700000000000E+01
(PID.TID 0000.0001) %MON dynstat_salt_min             =   3.4000000000000E+01
(PID.TID 0000.0001) %MON dynstat_salt_mean            =   3.4499230147640E+01
(PID.TID 0000.0001) %MON dynstat_salt_sd              =   2.7635440080015E-01
(PID.TID 0000.0001) %MON dynstat_salt_del2            =   3.7361977183084E-07
(PID.TID 0000.0001) %MON advcfl_uvel_max              =   4.1107756067289E-04
(PID.TID 0000.0001) %MON advcfl_vvel_max              =   4.3762117723221E-04
(PID.TID 0000.0001) %MON advcfl_wvel_max              =   7.2008167352058E-04
(PID.TID 0000.0001) %MON advcfl_W_hf_max              =   7.2008167352058E-04
(PID.TID 0000.0001) %MON pe_b_mean                    =  -8.3194469743008E-01
(PID.TID 0000.0001) %MON ke_max                       =   7.6986024114577E-06
(PID.TID 0000.0001) %MON ke_mean                      =   2.7618425013230E-08
(PID.TID 0000.0001) %MON ke_vol                       =   4.2725245503663E+12
(PID.TID 0000.0001) // =======================================================
(PID.TID 0000.0001) // End MONITOR dynamic field statistics
(PID.TID 0000.0001) // =======================================================
(PID.TID 0000.0001) // =======================================================
(PID.TID 0000.0001) // Begin OBCS MONITOR field statistics
(PID.TID 0000.0001) // =======================================================
(PID.TID 0000.0001) %MON obc_N_vVel_max               =   1.4723493253887E-05
(PID.TID 0000.0001) %MON obc_N_vVel_min               =   1.4723493253887E-05
(PID.TID 0000.0001) %MON obc_N_vVel_mean              =   1.4723493253887E-05
(PID.TID 0000.0001) %MON obc_N_vVel_sd                =  -1.3493383742271E-23
(PID.TID 0000.0001) %MON obc_N_vVel_Int               =   9.7175055475655E+02
(PID.TID 0000.0001) // =======================================================
(PID.TID 0000.0001) // End OBCS MONITOR field statistics
(PID.TID 0000.0001) // =======================================================
 cg2d: Sum(rhs),rhsMax =   4.52156618231666E+00  2.99888307315269E+02
(PID.TID 0000.0001)      cg2d_init_res =   6.31032461364939E-06
(PID.TID 0000.0001)      cg2d_iters(min,last) =      -1      77
(PID.TID 0000.0001)      cg2d_last_res =   9.29009244569167E-12
(PID.TID 0000.0001) // =======================================================
(PID.TID 0000.0001) // Begin MONITOR dynamic field statistics
(PID.TID 0000.0001) // =======================================================
(PID.TID 0000.0001) %MON time_tsnumber                =                   446
(PID.TID 0000.0001) %MON time_secondsf                =   4.4600000000000E+04
(PID.TID 0000.0001) %MON dynstat_eta_max              =   5.7928888993211E+00
(PID.TID 0000.0001) %MON dynstat_eta_min              =  -1.4198772214672E+01
(PID.TID 0000.0001) %MON dynstat_eta_mean             =  -2.5110459793128E+00
(PID.TID 0000.0001) %MON dynstat_eta_sd               =   4.9523633586230E+00
(PID.TID 0000.0001) %MON dynstat_eta_del2             =   2.0714107953832E-01
(PID.TID 0000.0001) %MON dynstat_uvel_max             =   1.7928222183072E-03
(PID.TID 0000.0001) %MON dynstat_uvel_min             =  -4.1245854120664E-03
(PID.TID 0000.0001) %MON dynstat_uvel_mean            =  -1.1807384683456E-07
(PID.TID 0000.0001) %MON dynstat_uvel_sd              =   1.7595753925349E-04
(PID.TID 0000.0001) %MON dynstat_uvel_del2            =   3.1585641803115E-07
(PID.TID 0000.0001) %MON dynstat_vvel_max             =   4.3742542588907E-03
(PID.TID 0000.0001) %MON dynstat_vvel_min             =  -2.3595455218501E-03
(PID.TID 0000.0001) %MON dynstat_vvel_mean            =   1.4958300834834E-05
(PID.TID 0000.0001) %MON dynstat_vvel_sd              =   1.5798504415442E-04
(PID.TID 0000.0001) %MON dynstat_vvel_del2            =   3.7090973368895E-07
(PID.TID 0000.0001) %MON dynstat_wvel_max             =   1.3082153116353E-04
(PID.TID 0000.0001) %MON dynstat_wvel_min             =  -1.4460330313156E-04
(PID.TID 0000.0001) %MON dynstat_wvel_mean            =   6.5960647546093E-09
(PID.TID 0000.0001) %MON dynstat_wvel_sd              =   2.5212148690884E-05
(PID.TID 0000.0001) %MON dynstat_wvel_del2            =   1.1527006382205E-07
(PID.TID 0000.0001) %MON dynstat_theta_max            =   1.2000000000000E+00
(PID.TID 0000.0001) %MON dynstat_theta_min            =  -1.0000000000000E+00
(PID.TID 0000.0001) %MON dynstat_theta_mean           =   5.6903967613148E-01
(PID.TID 0000.0001) %MON dynstat_theta_sd             =   8.6855071462993E-01
(PID.TID 0000.0001) %MON dynstat_theta_del2           =   1.0500440718665E-06
(PID.TID 0000.0001) %MON dynstat_salt_max             =   3.4700000000000E+01
(PID.TID 0000.0001) %MON dynstat_salt_min             =   3.4000000000000E+01
(PID.TID 0000.0001) %MON dynstat_salt_mean            =   3.4499230023939E+01
(PID.TID 0000.0001) %MON dynstat_salt_sd              =   2.7635434175328E-01
(PID.TID 0000.0001) %MON dynstat_salt_del2            =   3.7379558893853E-07
(PID.TID 0000.0001) %MON advcfl_uvel_max              =   4.1245854120664E-04
(PID.TID 0000.0001) %MON advcfl_vvel_max              =   4.3742542588907E-04
(PID.TID 0000.0001) %MON advcfl_wvel_max              =   7.2301651565778E-04
(PID.TID 0000.0001) %MON advcfl_W_hf_max              =   7.2301651565778E-04
(PID.TID 0000.0001) %MON pe_b_mean                    =  -8.3194864716249E-01
(PID.TID 0000.0001) %MON ke_max                       =   7.6766053858908E-06
(PID.TID 0000.0001) %MON ke_mean                      =   2.7763408013852E-08
(PID.TID 0000.0001) %MON ke_vol                       =   4.2725244686204E+12
(PID.TID 0000.0001) // =======================================================
(PID.TID 0000.0001) // End MONITOR dynamic field statistics
(PID.TID 0000.0001) // =======================================================
(PID.TID 0000.0001) // =======================================================
(PID.TID 0000.0001) // Begin OBCS MONITOR field statistics
(PID.TID 0000.0001) // =======================================================
(PID.TID 0000.0001) %MON obc_N_vVel_max               =   1.4725238704838E-05
(PID.TID 0000.0001) %MON obc_N_vVel_min               =   1.4725238704837E-05
(PID.TID 0000.0001) %MON obc_N_vVel_mean              =   1.4725238704838E-05
(PID.TID 0000.0001) %MON obc_N_vVel_sd                =  -9.5384264385021E-24
(PID.TID 0000.0001) %MON obc_N_vVel_Int               =   9.7186575451928E+02
(PID.TID 0000.0001) // =======================================================
(PID.TID 0000.0001) // End OBCS MONITOR field statistics
(PID.TID 0000.0001) // =======================================================
 cg2d: Sum(rhs),rhsMax =   4.52158981508478E+00  2.99888383150053E+02
(PID.TID 0000.0001)      cg2d_init_res =   6.30564316849307E-06
(PID.TID 0000.0001)      cg2d_iters(min,last) =      -1      77
(PID.TID 0000.0001)      cg2d_last_res =   9.31294245932477E-12
(PID.TID 0000.0001) // =======================================================
(PID.TID 0000.0001) // Begin MONITOR dynamic field statistics
(PID.TID 0000.0001) // =======================================================
(PID.TID 0000.0001) %MON time_tsnumber                =                   447
(PID.TID 0000.0001) %MON time_secondsf                =   4.4700000000000E+04
(PID.TID 0000.0001) %MON dynstat_eta_max              =   5.7928556018336E+00
(PID.TID 0000.0001) %MON dynstat_eta_min              =  -1.4198795610162E+01
(PID.TID 0000.0001) %MON dynstat_eta_mean             =  -2.5110597387288E+00
(PID.TID 0000.0001) %MON dynstat_eta_sd               =   4.9523679146790E+00
(PID.TID 0000.0001) %MON dynstat_eta_del2             =   2.0714108717625E-01
(PID.TID 0000.0001) %MON dynstat_uvel_max             =   1.7869398826299E-03
(PID.TID 0000.0001) %MON dynstat_uvel_min             =  -4.1384211797295E-03
(PID.TID 0000.0001) %MON dynstat_uvel_mean            =  -1.1811294033120E-07
(PID.TID 0000.0001) %MON dynstat_uvel_sd              =   1.7635866862844E-04
(PID.TID 0000.0001) %MON dynstat_uvel_del2            =   3.1616831183323E-07
(PID.TID 0000.0001) %MON dynstat_vvel_max             =   4.3722251581562E-03
(PID.TID 0000.0001) %MON dynstat_vvel_min             =  -2.3604536177828E-03
(PID.TID 0000.0001) %MON dynstat_vvel_mean            =   1.4960972563483E-05
(PID.TID 0000.0001) %MON dynstat_vvel_sd              =   1.5849382243868E-04
(PID.TID 0000.0001) %MON dynstat_vvel_del2            =   3.7066666946689E-07
(PID.TID 0000.0001) %MON dynstat_wvel_max             =   1.3201966157148E-04
(PID.TID 0000.0001) %MON dynstat_wvel_min             =  -1.4519101460502E-04
(PID.TID 0000.0001) %MON dynstat_wvel_mean            =   6.6019913531186E-09
(PID.TID 0000.0001) %MON dynstat_wvel_sd              =   2.5245403881927E-05
(PID.TID 0000.0001) %MON dynstat_wvel_del2            =   1.1497552996134E-07
(PID.TID 0000.0001) %MON dynstat_theta_max            =   1.2000000000000E+00
(PID.TID 0000.0001) %MON dynstat_theta_min            =  -1.0000000000000E+00
(PID.TID 0000.0001) %MON dynstat_theta_mean           =   5.6903936598992E-01
(PID.TID 0000.0001) %MON dynstat_theta_sd             =   8.6855055432088E-01
(PID.TID 0000.0001) %MON dynstat_theta_del2           =   1.0498267545451E-06
(PID.TID 0000.0001) %MON dynstat_salt_max             =   3.4700000000000E+01
(PID.TID 0000.0001) %MON dynstat_salt_min             =   3.4000000000000E+01
(PID.TID 0000.0001) %MON dynstat_salt_mean            =   3.4499229900133E+01
(PID.TID 0000.0001) %MON dynstat_salt_sd              =   2.7635428258705E-01
(PID.TID 0000.0001) %MON dynstat_salt_del2            =   3.7392644282010E-07
(PID.TID 0000.0001) %MON advcfl_uvel_max              =   4.1384211797295E-04
(PID.TID 0000.0001) %MON advcfl_vvel_max              =   4.3722251581562E-04
(PID.TID 0000.0001) %MON advcfl_wvel_max              =   7.2595507302509E-04
(PID.TID 0000.0001) %MON advcfl_W_hf_max              =   7.2595507302509E-04
(PID.TID 0000.0001) %MON pe_b_mean                    =  -8.3195259637448E-01
(PID.TID 0000.0001) %MON ke_max                       =   7.6544764364894E-06
(PID.TID 0000.0001) %MON ke_mean                      =   2.7913211719625E-08
(PID.TID 0000.0001) %MON ke_vol                       =   4.2725243868829E+12
(PID.TID 0000.0001) // =======================================================
(PID.TID 0000.0001) // End MONITOR dynamic field statistics
(PID.TID 0000.0001) // =======================================================
(PID.TID 0000.0001) // =======================================================
(PID.TID 0000.0001) // Begin OBCS MONITOR field statistics
(PID.TID 0000.0001) // =======================================================
(PID.TID 0000.0001) %MON obc_N_vVel_max               =   1.4727258295161E-05
(PID.TID 0000.0001) %MON obc_N_vVel_min               =   1.4727258295160E-05
(PID.TID 0000.0001) %MON obc_N_vVel_mean              =   1.4727258295161E-05
(PID.TID 0000.0001) %MON obc_N_vVel_sd                =  -9.3057818912216E-24
(PID.TID 0000.0001) %MON obc_N_vVel_Int               =   9.7199904748061E+02
(PID.TID 0000.0001) // =======================================================
(PID.TID 0000.0001) // End OBCS MONITOR field statistics
(PID.TID 0000.0001) // =======================================================
 cg2d: Sum(rhs),rhsMax =   4.52161344636313E+00  2.99888458977073E+02
(PID.TID 0000.0001)      cg2d_init_res =   6.30076186944159E-06
(PID.TID 0000.0001)      cg2d_iters(min,last) =      -1      77
(PID.TID 0000.0001)      cg2d_last_res =   9.33474676537173E-12
(PID.TID 0000.0001) // =======================================================
(PID.TID 0000.0001) // Begin MONITOR dynamic field statistics
(PID.TID 0000.0001) // =======================================================
(PID.TID 0000.0001) %MON time_tsnumber                =                   448
(PID.TID 0000.0001) %MON time_secondsf                =   4.4800000000000E+04
(PID.TID 0000.0001) %MON dynstat_eta_max              =   5.7928223020941E+00
(PID.TID 0000.0001) %MON dynstat_eta_min              =  -1.4198819000783E+01
(PID.TID 0000.0001) %MON dynstat_eta_mean             =  -2.5110734972590E+00
(PID.TID 0000.0001) %MON dynstat_eta_sd               =   4.9523724709213E+00
(PID.TID 0000.0001) %MON dynstat_eta_del2             =   2.0714109484417E-01
(PID.TID 0000.0001) %MON dynstat_uvel_max             =   1.7810050409409E-03
(PID.TID 0000.0001) %MON dynstat_uvel_min             =  -4.1522830377447E-03
(PID.TID 0000.0001) %MON dynstat_uvel_mean            =  -1.1814710030993E-07
(PID.TID 0000.0001) %MON dynstat_uvel_sd              =   1.7676135163670E-04
(PID.TID 0000.0001) %MON dynstat_uvel_del2            =   3.1648439510206E-07
(PID.TID 0000.0001) %MON dynstat_vvel_max             =   4.3701249797206E-03
(PID.TID 0000.0001) %MON dynstat_vvel_min             =  -2.3613233652409E-03
(PID.TID 0000.0001) %MON dynstat_vvel_mean            =   1.4963828667108E-05
(PID.TID 0000.0001) %MON dynstat_vvel_sd              =   1.5902464841137E-04
(PID.TID 0000.0001) %MON dynstat_vvel_del2            =   3.7047349152223E-07
(PID.TID 0000.0001) %MON dynstat_wvel_max             =   1.3191066878598E-04
(PID.TID 0000.0001) %MON dynstat_wvel_min             =  -1.4577946965539E-04
(PID.TID 0000.0001) %MON dynstat_wvel_mean            =   6.6075443891303E-09
(PID.TID 0000.0001) %MON dynstat_wvel_sd              =   2.5297444799168E-05
(PID.TID 0000.0001) %MON dynstat_wvel_del2            =   1.1473167095838E-07
(PID.TID 0000.0001) %MON dynstat_theta_max            =   1.2000000000000E+00
(PID.TID 0000.0001) %MON dynstat_theta_min            =  -1.0000000000000E+00
(PID.TID 0000.0001) %MON dynstat_theta_mean           =   5.6903905562818E-01
(PID.TID 0000.0001) %MON dynstat_theta_sd             =   8.6855039368896E-01
(PID.TID 0000.0001) %MON dynstat_theta_del2           =   1.0494427695700E-06
(PID.TID 0000.0001) %MON dynstat_salt_max             =   3.4700000000000E+01
(PID.TID 0000.0001) %MON dynstat_salt_min             =   3.4000000000000E+01
(PID.TID 0000.0001) %MON dynstat_salt_mean            =   3.4499229776224E+01
(PID.TID 0000.0001) %MON dynstat_salt_sd              =   2.7635422329763E-01
(PID.TID 0000.0001) %MON dynstat_salt_del2            =   3.7401091639678E-07
(PID.TID 0000.0001) %MON advcfl_uvel_max              =   4.1522830377447E-04
(PID.TID 0000.0001) %MON advcfl_vvel_max              =   4.3701249797206E-04
(PID.TID 0000.0001) %MON advcfl_wvel_max              =   7.2889734827695E-04
(PID.TID 0000.0001) %MON advcfl_W_hf_max              =   7.2889734827695E-04
(PID.TID 0000.0001) %MON pe_b_mean                    =  -8.3195654510548E-01
(PID.TID 0000.0001) %MON ke_max                       =   7.6322171657695E-06
(PID.TID 0000.0001) %MON ke_mean                      =   2.8067209472129E-08
(PID.TID 0000.0001) %MON ke_vol                       =   4.2725243051520E+12
(PID.TID 0000.0001) // =======================================================
(PID.TID 0000.0001) // End MONITOR dynamic field statistics
(PID.TID 0000.0001) // =======================================================
(PID.TID 0000.0001) // =======================================================
(PID.TID 0000.0001) // Begin OBCS MONITOR field statistics
(PID.TID 0000.0001) // =======================================================
(PID.TID 0000.0001) %MON obc_N_vVel_max               =   1.4729479778533E-05
(PID.TID 0000.0001) %MON obc_N_vVel_min               =   1.4729479778533E-05
(PID.TID 0000.0001) %MON obc_N_vVel_mean              =   1.4729479778533E-05
(PID.TID 0000.0001) %MON obc_N_vVel_sd                =   4.5218216203810E-12
(PID.TID 0000.0001) %MON obc_N_vVel_Int               =   9.7214566538317E+02
(PID.TID 0000.0001) // =======================================================
(PID.TID 0000.0001) // End OBCS MONITOR field statistics
(PID.TID 0000.0001) // =======================================================
 cg2d: Sum(rhs),rhsMax =   4.52163707644744E+00  2.99888534793724E+02
(PID.TID 0000.0001)      cg2d_init_res =   6.29577601335330E-06
(PID.TID 0000.0001)      cg2d_iters(min,last) =      -1      77
(PID.TID 0000.0001)      cg2d_last_res =   9.35399774900564E-12
(PID.TID 0000.0001) // =======================================================
(PID.TID 0000.0001) // Begin MONITOR dynamic field statistics
(PID.TID 0000.0001) // =======================================================
(PID.TID 0000.0001) %MON time_tsnumber                =                   449
(PID.TID 0000.0001) %MON time_secondsf                =   4.4900000000000E+04
(PID.TID 0000.0001) %MON dynstat_eta_max              =   5.7927890001490E+00
(PID.TID 0000.0001) %MON dynstat_eta_min              =  -1.4198842386605E+01
(PID.TID 0000.0001) %MON dynstat_eta_mean             =  -2.5110872550459E+00
(PID.TID 0000.0001) %MON dynstat_eta_sd               =   4.9523770273215E+00
(PID.TID 0000.0001) %MON dynstat_eta_del2             =   2.0714110254180E-01
(PID.TID 0000.0001) %MON dynstat_uvel_max             =   1.7750180346810E-03
(PID.TID 0000.0001) %MON dynstat_uvel_min             =  -4.1661711138472E-03
(PID.TID 0000.0001) %MON dynstat_uvel_mean            =  -1.1817598671395E-07
(PID.TID 0000.0001) %MON dynstat_uvel_sd              =   1.7716577430261E-04
(PID.TID 0000.0001) %MON dynstat_uvel_del2            =   3.1680467832737E-07
(PID.TID 0000.0001) %MON dynstat_vvel_max             =   4.3679542302320E-03
(PID.TID 0000.0001) %MON dynstat_vvel_min             =  -2.3621549425012E-03
(PID.TID 0000.0001) %MON dynstat_vvel_mean            =   1.4966770542496E-05
(PID.TID 0000.0001) %MON dynstat_vvel_sd              =   1.5957232554459E-04
(PID.TID 0000.0001) %MON dynstat_vvel_del2            =   3.7033230815491E-07
(PID.TID 0000.0001) %MON dynstat_wvel_max             =   1.3048934384718E-04
(PID.TID 0000.0001) %MON dynstat_wvel_min             =  -1.4636866880640E-04
(PID.TID 0000.0001) %MON dynstat_wvel_mean            =   6.6125419727842E-09
(PID.TID 0000.0001) %MON dynstat_wvel_sd              =   2.5367666399258E-05
(PID.TID 0000.0001) %MON dynstat_wvel_del2            =   1.1454165768957E-07
(PID.TID 0000.0001) %MON dynstat_theta_max            =   1.2000000000000E+00
(PID.TID 0000.0001) %MON dynstat_theta_min            =  -1.0000000000000E+00
(PID.TID 0000.0001) %MON dynstat_theta_mean           =   5.6903874505279E-01
(PID.TID 0000.0001) %MON dynstat_theta_sd             =   8.6855023272389E-01
(PID.TID 0000.0001) %MON dynstat_theta_del2           =   1.0488918895083E-06
(PID.TID 0000.0001) %MON dynstat_salt_max             =   3.4700000000000E+01
(PID.TID 0000.0001) %MON dynstat_salt_min             =   3.4000000000000E+01
(PID.TID 0000.0001) %MON dynstat_salt_mean            =   3.4499229652214E+01
(PID.TID 0000.0001) %MON dynstat_salt_sd              =   2.7635416388183E-01
(PID.TID 0000.0001) %MON dynstat_salt_del2            =   3.7404905890241E-07
(PID.TID 0000.0001) %MON advcfl_uvel_max              =   4.1661711138472E-04
(PID.TID 0000.0001) %MON advcfl_vvel_max              =   4.3679542302320E-04
(PID.TID 0000.0001) %MON advcfl_wvel_max              =   7.3184334403202E-04
(PID.TID 0000.0001) %MON advcfl_W_hf_max              =   7.3184334403202E-04
(PID.TID 0000.0001) %MON pe_b_mean                    =  -8.3196049337187E-01
(PID.TID 0000.0001) %MON ke_max                       =   7.6098291683513E-06
(PID.TID 0000.0001) %MON ke_mean                      =   2.8224639894628E-08
(PID.TID 0000.0001) %MON ke_vol                       =   4.2725242234263E+12
(PID.TID 0000.0001) // =======================================================
(PID.TID 0000.0001) // End MONITOR dynamic field statistics
(PID.TID 0000.0001) // =======================================================
(PID.TID 0000.0001) // =======================================================
(PID.TID 0000.0001) // Begin OBCS MONITOR field statistics
(PID.TID 0000.0001) // =======================================================
(PID.TID 0000.0001) %MON obc_N_vVel_max               =   1.4731824917695E-05
(PID.TID 0000.0001) %MON obc_N_vVel_min               =   1.4731824917695E-05
(PID.TID 0000.0001) %MON obc_N_vVel_mean              =   1.4731824917695E-05
(PID.TID 0000.0001) %MON obc_N_vVel_sd                =   1.7241462601422E-12
(PID.TID 0000.0001) %MON obc_N_vVel_Int               =   9.7230044456786E+02
(PID.TID 0000.0001) // =======================================================
(PID.TID 0000.0001) // End OBCS MONITOR field statistics
(PID.TID 0000.0001) // =======================================================
 cg2d: Sum(rhs),rhsMax =   4.52166070545176E+00  2.99888610597956E+02
(PID.TID 0000.0001)      cg2d_init_res =   6.29071897773761E-06
(PID.TID 0000.0001)      cg2d_iters(min,last) =      -1      77
(PID.TID 0000.0001)      cg2d_last_res =   9.36820294237721E-12
(PID.TID 0000.0001) // =======================================================
(PID.TID 0000.0001) // Begin MONITOR dynamic field statistics
(PID.TID 0000.0001) // =======================================================
(PID.TID 0000.0001) %MON time_tsnumber                =                   450
(PID.TID 0000.0001) %MON time_secondsf                =   4.5000000000000E+04
(PID.TID 0000.0001) %MON dynstat_eta_max              =   5.7927556961016E+00
(PID.TID 0000.0001) %MON dynstat_eta_min              =  -1.4198865767558E+01
(PID.TID 0000.0001) %MON dynstat_eta_mean             =  -2.5111010121357E+00
(PID.TID 0000.0001) %MON dynstat_eta_sd               =   4.9523815838178E+00
(PID.TID 0000.0001) %MON dynstat_eta_del2             =   2.0714111026871E-01
(PID.TID 0000.0001) %MON dynstat_uvel_max             =   1.7689792061647E-03
(PID.TID 0000.0001) %MON dynstat_uvel_min             =  -4.1800855359950E-03
(PID.TID 0000.0001) %MON dynstat_uvel_mean            =  -1.1819944676400E-07
(PID.TID 0000.0001) %MON dynstat_uvel_sd              =   1.7757211694254E-04
(PID.TID 0000.0001) %MON dynstat_uvel_del2            =   3.1712917502167E-07
(PID.TID 0000.0001) %MON dynstat_vvel_max             =   4.3657134175756E-03
(PID.TID 0000.0001) %MON dynstat_vvel_min             =  -2.3629485309797E-03
(PID.TID 0000.0001) %MON dynstat_vvel_mean            =   1.4969697928565E-05
(PID.TID 0000.0001) %MON dynstat_vvel_sd              =   1.6013091202863E-04
(PID.TID 0000.0001) %MON dynstat_vvel_del2            =   3.7024293166577E-07
(PID.TID 0000.0001) %MON dynstat_wvel_max             =   1.2776501496890E-04
(PID.TID 0000.0001) %MON dynstat_wvel_min             =  -1.4695861254574E-04
(PID.TID 0000.0001) %MON dynstat_wvel_mean            =   6.6168239726577E-09
(PID.TID 0000.0001) %MON dynstat_wvel_sd              =   2.5454842305197E-05
(PID.TID 0000.0001) %MON dynstat_wvel_del2            =   1.1440576303206E-07
(PID.TID 0000.0001) %MON dynstat_theta_max            =   1.2000000000000E+00
(PID.TID 0000.0001) %MON dynstat_theta_min            =  -1.0000000000000E+00
(PID.TID 0000.0001) %MON dynstat_theta_mean           =   5.6903843426918E-01
(PID.TID 0000.0001) %MON dynstat_theta_sd             =   8.6855007140729E-01
(PID.TID 0000.0001) %MON dynstat_theta_del2           =   1.0481791433162E-06
(PID.TID 0000.0001) %MON dynstat_salt_max             =   3.4700000000000E+01
(PID.TID 0000.0001) %MON dynstat_salt_min             =   3.4000000000000E+01
(PID.TID 0000.0001) %MON dynstat_salt_mean            =   3.4499229528105E+01
(PID.TID 0000.0001) %MON dynstat_salt_sd              =   2.7635410433368E-01
(PID.TID 0000.0001) %MON dynstat_salt_del2            =   3.7404239069383E-07
(PID.TID 0000.0001) %MON advcfl_uvel_max              =   4.1800855359950E-04
(PID.TID 0000.0001) %MON advcfl_vvel_max              =   4.3657134175756E-04
(PID.TID 0000.0001) %MON advcfl_wvel_max              =   7.3479306272868E-04
(PID.TID 0000.0001) %MON advcfl_W_hf_max              =   7.3479306272868E-04
(PID.TID 0000.0001) %MON pe_b_mean                    =  -8.3196444116293E-01
(PID.TID 0000.0001) %MON ke_max                       =   7.5873140403076E-06
(PID.TID 0000.0001) %MON ke_mean                      =   2.8384611233350E-08
(PID.TID 0000.0001) %MON ke_vol                       =   4.2725241417050E+12
(PID.TID 0000.0001) // =======================================================
(PID.TID 0000.0001) // End MONITOR dynamic field statistics
(PID.TID 0000.0001) // =======================================================
(PID.TID 0000.0001) // =======================================================
(PID.TID 0000.0001) // Begin OBCS MONITOR field statistics
(PID.TID 0000.0001) // =======================================================
(PID.TID 0000.0001) %MON obc_N_vVel_max               =   1.4734212196967E-05
(PID.TID 0000.0001) %MON obc_N_vVel_min               =   1.4734212196967E-05
(PID.TID 0000.0001) %MON obc_N_vVel_mean              =   1.4734212196967E-05
(PID.TID 0000.0001) %MON obc_N_vVel_sd                =  -6.3331015648591E-24
(PID.TID 0000.0001) %MON obc_N_vVel_Int               =   9.7245800499982E+02
(PID.TID 0000.0001) // =======================================================
(PID.TID 0000.0001) // End OBCS MONITOR field statistics
(PID.TID 0000.0001) // =======================================================
 cg2d: Sum(rhs),rhsMax =   4.52168433331517E+00  2.99888686388445E+02
(PID.TID 0000.0001)      cg2d_init_res =   6.28563003765931E-06
(PID.TID 0000.0001)      cg2d_iters(min,last) =      -1      77
(PID.TID 0000.0001)      cg2d_last_res =   9.37613047095825E-12
(PID.TID 0000.0001) // =======================================================
(PID.TID 0000.0001) // Begin MONITOR dynamic field statistics
(PID.TID 0000.0001) // =======================================================
(PID.TID 0000.0001) %MON time_tsnumber                =                   451
(PID.TID 0000.0001) %MON time_secondsf                =   4.5100000000000E+04
(PID.TID 0000.0001) %MON dynstat_eta_max              =   5.7927223901244E+00
(PID.TID 0000.0001) %MON dynstat_eta_min              =  -1.4198889143411E+01
(PID.TID 0000.0001) %MON dynstat_eta_mean             =  -2.5111147684835E+00
(PID.TID 0000.0001) %MON dynstat_eta_sd               =   4.9523861403187E+00
(PID.TID 0000.0001) %MON dynstat_eta_del2             =   2.0714111802455E-01
(PID.TID 0000.0001) %MON dynstat_uvel_max             =   1.7628888984936E-03
(PID.TID 0000.0001) %MON dynstat_uvel_min             =  -4.1940264323834E-03
(PID.TID 0000.0001) %MON dynstat_uvel_mean            =  -1.1821751397264E-07
(PID.TID 0000.0001) %MON dynstat_uvel_sd              =   1.7798055140411E-04
(PID.TID 0000.0001) %MON dynstat_uvel_del2            =   3.1745790131040E-07
(PID.TID 0000.0001) %MON dynstat_vvel_max             =   4.3634030546498E-03
(PID.TID 0000.0001) %MON dynstat_vvel_min             =  -2.3637043119855E-03
(PID.TID 0000.0001) %MON dynstat_vvel_mean            =   1.4972512313470E-05
(PID.TID 0000.0001) %MON dynstat_vvel_sd              =   1.6069379508262E-04
(PID.TID 0000.0001) %MON dynstat_vvel_del2            =   3.7020308616095E-07
(PID.TID 0000.0001) %MON dynstat_wvel_max             =   1.2376179282251E-04
(PID.TID 0000.0001) %MON dynstat_wvel_min             =  -1.4754930146852E-04
(PID.TID 0000.0001) %MON dynstat_wvel_mean            =   6.6202574276100E-09
(PID.TID 0000.0001) %MON dynstat_wvel_sd              =   2.5557146430977E-05
(PID.TID 0000.0001) %MON dynstat_wvel_del2            =   1.1432171357204E-07
(PID.TID 0000.0001) %MON dynstat_theta_max            =   1.2000000000000E+00
(PID.TID 0000.0001) %MON dynstat_theta_min            =  -1.0000000000000E+00
(PID.TID 0000.0001) %MON dynstat_theta_mean           =   5.6903812328243E-01
(PID.TID 0000.0001) %MON dynstat_theta_sd             =   8.6854990972259E-01
(PID.TID 0000.0001) %MON dynstat_theta_del2           =   1.0473149705184E-06
(PID.TID 0000.0001) %MON dynstat_salt_max             =   3.4700000000000E+01
(PID.TID 0000.0001) %MON dynstat_salt_min             =   3.4000000000000E+01
(PID.TID 0000.0001) %MON dynstat_salt_mean            =   3.4499229403898E+01
(PID.TID 0000.0001) %MON dynstat_salt_sd              =   2.7635404464808E-01
(PID.TID 0000.0001) %MON dynstat_salt_del2            =   3.7399397970742E-07
(PID.TID 0000.0001) %MON advcfl_uvel_max              =   4.1940264323834E-04
(PID.TID 0000.0001) %MON advcfl_vvel_max              =   4.3634030546498E-04
(PID.TID 0000.0001) %MON advcfl_wvel_max              =   7.3774650734262E-04
(PID.TID 0000.0001) %MON advcfl_W_hf_max              =   7.3774650734262E-04
(PID.TID 0000.0001) %MON pe_b_mean                    =  -8.3196838844352E-01
(PID.TID 0000.0001) %MON ke_max                       =   7.5646733888586E-06
(PID.TID 0000.0001) %MON ke_mean                      =   2.8546110014752E-08
(PID.TID 0000.0001) %MON ke_vol                       =   4.2725240599879E+12
(PID.TID 0000.0001) // =======================================================
(PID.TID 0000.0001) // End MONITOR dynamic field statistics
(PID.TID 0000.0001) // =======================================================
(PID.TID 0000.0001) // =======================================================
(PID.TID 0000.0001) // Begin OBCS MONITOR field statistics
(PID.TID 0000.0001) // =======================================================
(PID.TID 0000.0001) %MON obc_N_vVel_max               =   1.4736559645468E-05
(PID.TID 0000.0001) %MON obc_N_vVel_min               =   1.4736559645468E-05
(PID.TID 0000.0001) %MON obc_N_vVel_mean              =   1.4736559645468E-05
(PID.TID 0000.0001) %MON obc_N_vVel_sd                =   3.4143925899301E-12
(PID.TID 0000.0001) %MON obc_N_vVel_Int               =   9.7261293660090E+02
(PID.TID 0000.0001) // =======================================================
(PID.TID 0000.0001) // End OBCS MONITOR field statistics
(PID.TID 0000.0001) // =======================================================
 cg2d: Sum(rhs),rhsMax =   4.52170795981498E+00  2.99888762164715E+02
(PID.TID 0000.0001)      cg2d_init_res =   6.28053088307735E-06
(PID.TID 0000.0001)      cg2d_iters(min,last) =      -1      77
(PID.TID 0000.0001)      cg2d_last_res =   9.37900861730500E-12
(PID.TID 0000.0001) // =======================================================
(PID.TID 0000.0001) // Begin MONITOR dynamic field statistics
(PID.TID 0000.0001) // =======================================================
(PID.TID 0000.0001) %MON time_tsnumber                =                   452
(PID.TID 0000.0001) %MON time_secondsf                =   4.5200000000000E+04
(PID.TID 0000.0001) %MON dynstat_eta_max              =   5.7926890824459E+00
(PID.TID 0000.0001) %MON dynstat_eta_min              =  -1.4198912513799E+01
(PID.TID 0000.0001) %MON dynstat_eta_mean             =  -2.5111285239616E+00
(PID.TID 0000.0001) %MON dynstat_eta_sd               =   4.9523906967125E+00
(PID.TID 0000.0001) %MON dynstat_eta_del2             =   2.0714112580911E-01
(PID.TID 0000.0001) %MON dynstat_uvel_max             =   1.7567474555431E-03
(PID.TID 0000.0001) %MON dynstat_uvel_min             =  -4.2079939318045E-03
(PID.TID 0000.0001) %MON dynstat_uvel_mean            =  -1.1823035375090E-07
(PID.TID 0000.0001) %MON dynstat_uvel_sd              =   1.7839123814882E-04
(PID.TID 0000.0001) %MON dynstat_uvel_del2            =   3.1779087476341E-07
(PID.TID 0000.0001) %MON dynstat_vvel_max             =   4.3610236633382E-03
(PID.TID 0000.0001) %MON dynstat_vvel_min             =  -2.3644224638897E-03
(PID.TID 0000.0001) %MON dynstat_vvel_mean            =   1.4975120217861E-05
(PID.TID 0000.0001) %MON dynstat_vvel_sd              =   1.6125378862518E-04
(PID.TID 0000.0001) %MON dynstat_vvel_del2            =   3.7020879602766E-07
(PID.TID 0000.0001) %MON dynstat_wvel_max             =   1.2602767922242E-04
(PID.TID 0000.0001) %MON dynstat_wvel_min             =  -1.4814073625645E-04
(PID.TID 0000.0001) %MON dynstat_wvel_mean            =   6.6227402641546E-09
(PID.TID 0000.0001) %MON dynstat_wvel_sd              =   2.5672204581101E-05
(PID.TID 0000.0001) %MON dynstat_wvel_del2            =   1.1428530767627E-07
(PID.TID 0000.0001) %MON dynstat_theta_max            =   1.2000000000000E+00
(PID.TID 0000.0001) %MON dynstat_theta_min            =  -1.0000000000000E+00
(PID.TID 0000.0001) %MON dynstat_theta_mean           =   5.6903781209791E-01
(PID.TID 0000.0001) %MON dynstat_theta_sd             =   8.6854974766492E-01
(PID.TID 0000.0001) %MON dynstat_theta_del2           =   1.0463135039120E-06
(PID.TID 0000.0001) %MON dynstat_salt_max             =   3.4700000000000E+01
(PID.TID 0000.0001) %MON dynstat_salt_min             =   3.4000000000000E+01
(PID.TID 0000.0001) %MON dynstat_salt_mean            =   3.4499229279595E+01
(PID.TID 0000.0001) %MON dynstat_salt_sd              =   2.7635398482323E-01
(PID.TID 0000.0001) %MON dynstat_salt_del2            =   3.7390792258236E-07
(PID.TID 0000.0001) %MON advcfl_uvel_max              =   4.2079939318045E-04
(PID.TID 0000.0001) %MON advcfl_vvel_max              =   4.3610236633382E-04
(PID.TID 0000.0001) %MON advcfl_wvel_max              =   7.4070368128223E-04
(PID.TID 0000.0001) %MON advcfl_W_hf_max              =   7.4070368128223E-04
(PID.TID 0000.0001) %MON pe_b_mean                    =  -8.3197233515787E-01
(PID.TID 0000.0001) %MON ke_max                       =   7.5419088405717E-06
(PID.TID 0000.0001) %MON ke_mean                      =   2.8708013965777E-08
(PID.TID 0000.0001) %MON ke_vol                       =   4.2725239782752E+12
(PID.TID 0000.0001) // =======================================================
(PID.TID 0000.0001) // End MONITOR dynamic field statistics
(PID.TID 0000.0001) // =======================================================
(PID.TID 0000.0001) // =======================================================
(PID.TID 0000.0001) // Begin OBCS MONITOR field statistics
(PID.TID 0000.0001) // =======================================================
(PID.TID 0000.0001) %MON obc_N_vVel_max               =   1.4738787672048E-05
(PID.TID 0000.0001) %MON obc_N_vVel_min               =   1.4738787672048E-05
(PID.TID 0000.0001) %MON obc_N_vVel_mean              =   1.4738787672048E-05
(PID.TID 0000.0001) %MON obc_N_vVel_sd                =   3.6308664272545E-12
(PID.TID 0000.0001) %MON obc_N_vVel_Int               =   9.7275998635516E+02
(PID.TID 0000.0001) // =======================================================
(PID.TID 0000.0001) // End OBCS MONITOR field statistics
(PID.TID 0000.0001) // =======================================================
 cg2d: Sum(rhs),rhsMax =   4.52173158456058E+00  2.99888837927226E+02
(PID.TID 0000.0001)      cg2d_init_res =   6.27542373502382E-06
(PID.TID 0000.0001)      cg2d_iters(min,last) =      -1      77
(PID.TID 0000.0001)      cg2d_last_res =   9.37970203517205E-12
(PID.TID 0000.0001) // =======================================================
(PID.TID 0000.0001) // Begin MONITOR dynamic field statistics
(PID.TID 0000.0001) // =======================================================
(PID.TID 0000.0001) %MON time_tsnumber                =                   453
(PID.TID 0000.0001) %MON time_secondsf                =   4.5300000000000E+04
(PID.TID 0000.0001) %MON dynstat_eta_max              =   5.7926557733391E+00
(PID.TID 0000.0001) %MON dynstat_eta_min              =  -1.4198935878232E+01
(PID.TID 0000.0001) %MON dynstat_eta_mean             =  -2.5111422783569E+00
(PID.TID 0000.0001) %MON dynstat_eta_sd               =   4.9523952528649E+00
(PID.TID 0000.0001) %MON dynstat_eta_del2             =   2.0714113362206E-01
(PID.TID 0000.0001) %MON dynstat_uvel_max             =   1.7505552218695E-03
(PID.TID 0000.0001) %MON dynstat_uvel_min             =  -4.2219881638621E-03
(PID.TID 0000.0001) %MON dynstat_uvel_mean            =  -1.1823832409249E-07
(PID.TID 0000.0001) %MON dynstat_uvel_sd              =   1.7880432329598E-04
(PID.TID 0000.0001) %MON dynstat_uvel_del2            =   3.1812811330009E-07
(PID.TID 0000.0001) %MON dynstat_vvel_max             =   4.3585757780527E-03
(PID.TID 0000.0001) %MON dynstat_vvel_min             =  -2.3651031590841E-03
(PID.TID 0000.0001) %MON dynstat_vvel_mean            =   1.4977436280030E-05
(PID.TID 0000.0001) %MON dynstat_vvel_sd              =   1.6180325078551E-04
(PID.TID 0000.0001) %MON dynstat_vvel_del2            =   3.7025487639154E-07
(PID.TID 0000.0001) %MON dynstat_wvel_max             =   1.2759097036415E-04
(PID.TID 0000.0001) %MON dynstat_wvel_min             =  -1.4873291777270E-04
(PID.TID 0000.0001) %MON dynstat_wvel_mean            =   6.6242044206719E-09
(PID.TID 0000.0001) %MON dynstat_wvel_sd              =   2.5797167593115E-05
(PID.TID 0000.0001) %MON dynstat_wvel_del2            =   1.1429117998597E-07
(PID.TID 0000.0001) %MON dynstat_theta_max            =   1.2000000000000E+00
(PID.TID 0000.0001) %MON dynstat_theta_min            =  -1.0000000000000E+00
(PID.TID 0000.0001) %MON dynstat_theta_mean           =   5.6903750072030E-01
(PID.TID 0000.0001) %MON dynstat_theta_sd             =   8.6854958523694E-01
(PID.TID 0000.0001) %MON dynstat_theta_del2           =   1.0451926643036E-06
(PID.TID 0000.0001) %MON dynstat_salt_max             =   3.4700000000000E+01
(PID.TID 0000.0001) %MON dynstat_salt_min             =   3.4000000000000E+01
(PID.TID 0000.0001) %MON dynstat_salt_mean            =   3.4499229155198E+01
(PID.TID 0000.0001) %MON dynstat_salt_sd              =   2.7635392486013E-01
(PID.TID 0000.0001) %MON dynstat_salt_del2            =   3.7378938082430E-07
(PID.TID 0000.0001) %MON advcfl_uvel_max              =   4.2219881638621E-04
(PID.TID 0000.0001) %MON advcfl_vvel_max              =   4.3585757780527E-04
(PID.TID 0000.0001) %MON advcfl_wvel_max              =   7.4366458886352E-04
(PID.TID 0000.0001) %MON advcfl_W_hf_max              =   7.4366458886352E-04
(PID.TID 0000.0001) %MON pe_b_mean                    =  -8.3197628122856E-01
(PID.TID 0000.0001) %MON ke_max                       =   7.5190220505218E-06
(PID.TID 0000.0001) %MON ke_mean                      =   2.8869108890519E-08
(PID.TID 0000.0001) %MON ke_vol                       =   4.2725238965677E+12
(PID.TID 0000.0001) // =======================================================
(PID.TID 0000.0001) // End MONITOR dynamic field statistics
(PID.TID 0000.0001) // =======================================================
(PID.TID 0000.0001) // =======================================================
(PID.TID 0000.0001) // Begin OBCS MONITOR field statistics
(PID.TID 0000.0001) // =======================================================
(PID.TID 0000.0001) %MON obc_N_vVel_max               =   1.4740821753707E-05
(PID.TID 0000.0001) %MON obc_N_vVel_min               =   1.4740821753707E-05
(PID.TID 0000.0001) %MON obc_N_vVel_mean              =   1.4740821753707E-05
(PID.TID 0000.0001) %MON obc_N_vVel_sd                =  -2.0886310466964E-23
(PID.TID 0000.0001) %MON obc_N_vVel_Int               =   9.7289423574469E+02
(PID.TID 0000.0001) // =======================================================
(PID.TID 0000.0001) // End OBCS MONITOR field statistics
(PID.TID 0000.0001) // =======================================================
 cg2d: Sum(rhs),rhsMax =   4.52175520700809E+00  2.99888913677434E+02
(PID.TID 0000.0001)      cg2d_init_res =   6.27028734079996E-06
(PID.TID 0000.0001)      cg2d_iters(min,last) =      -1      77
(PID.TID 0000.0001)      cg2d_last_res =   9.37988879076485E-12
(PID.TID 0000.0001) // =======================================================
(PID.TID 0000.0001) // Begin MONITOR dynamic field statistics
(PID.TID 0000.0001) // =======================================================
(PID.TID 0000.0001) %MON time_tsnumber                =                   454
(PID.TID 0000.0001) %MON time_secondsf                =   4.5400000000000E+04
(PID.TID 0000.0001) %MON dynstat_eta_max              =   5.7926224631239E+00
(PID.TID 0000.0001) %MON dynstat_eta_min              =  -1.4198959236119E+01
(PID.TID 0000.0001) %MON dynstat_eta_mean             =  -2.5111560313795E+00
(PID.TID 0000.0001) %MON dynstat_eta_sd               =   4.9523998086214E+00
(PID.TID 0000.0001) %MON dynstat_eta_del2             =   2.0714114146291E-01
(PID.TID 0000.0001) %MON dynstat_uvel_max             =   1.7443125428064E-03
(PID.TID 0000.0001) %MON dynstat_uvel_min             =  -4.2360092591496E-03
(PID.TID 0000.0001) %MON dynstat_uvel_mean            =  -1.1824194610202E-07
(PID.TID 0000.0001) %MON dynstat_uvel_sd              =   1.7921993565325E-04
(PID.TID 0000.0001) %MON dynstat_uvel_del2            =   3.1846963381153E-07
(PID.TID 0000.0001) %MON dynstat_vvel_max             =   4.3560599488188E-03
(PID.TID 0000.0001) %MON dynstat_vvel_min             =  -2.3657465617628E-03
(PID.TID 0000.0001) %MON dynstat_vvel_mean            =   1.4979386080885E-05
(PID.TID 0000.0001) %MON dynstat_vvel_sd              =   1.6233421785786E-04
(PID.TID 0000.0001) %MON dynstat_vvel_del2            =   3.7033545006539E-07
(PID.TID 0000.0001) %MON dynstat_wvel_max             =   1.3050740751934E-04
(PID.TID 0000.0001) %MON dynstat_wvel_min             =  -1.4932584709870E-04
(PID.TID 0000.0001) %MON dynstat_wvel_mean            =   6.6246163368933E-09
(PID.TID 0000.0001) %MON dynstat_wvel_sd              =   2.5928797650647E-05
(PID.TID 0000.0001) %MON dynstat_wvel_del2            =   1.1433359067993E-07
(PID.TID 0000.0001) %MON dynstat_theta_max            =   1.2000000000000E+00
(PID.TID 0000.0001) %MON dynstat_theta_min            =  -1.0000000000000E+00
(PID.TID 0000.0001) %MON dynstat_theta_mean           =   5.6903718915363E-01
(PID.TID 0000.0001) %MON dynstat_theta_sd             =   8.6854942240871E-01
(PID.TID 0000.0001) %MON dynstat_theta_del2           =   1.0439738584233E-06
(PID.TID 0000.0001) %MON dynstat_salt_max             =   3.4700000000000E+01
(PID.TID 0000.0001) %MON dynstat_salt_min             =   3.4000000000000E+01
(PID.TID 0000.0001) %MON dynstat_salt_mean            =   3.4499229030708E+01
(PID.TID 0000.0001) %MON dynstat_salt_sd              =   2.7635386474937E-01
(PID.TID 0000.0001) %MON dynstat_salt_del2            =   3.7364449435517E-07
(PID.TID 0000.0001) %MON advcfl_uvel_max              =   4.2360092591496E-04
(PID.TID 0000.0001) %MON advcfl_vvel_max              =   4.3560599488188E-04
(PID.TID 0000.0001) %MON advcfl_wvel_max              =   7.4662923549349E-04
(PID.TID 0000.0001) %MON advcfl_W_hf_max              =   7.4662923549349E-04
(PID.TID 0000.0001) %MON pe_b_mean                    =  -8.3198022655959E-01
(PID.TID 0000.0001) %MON ke_max                       =   7.4960147088877E-06
(PID.TID 0000.0001) %MON ke_mean                      =   2.9028109162341E-08
(PID.TID 0000.0001) %MON ke_vol                       =   4.2725238148666E+12
(PID.TID 0000.0001) // =======================================================
(PID.TID 0000.0001) // End MONITOR dynamic field statistics
(PID.TID 0000.0001) // =======================================================
(PID.TID 0000.0001) // =======================================================
(PID.TID 0000.0001) // Begin OBCS MONITOR field statistics
(PID.TID 0000.0001) // =======================================================
(PID.TID 0000.0001) %MON obc_N_vVel_max               =   1.4742594941023E-05
(PID.TID 0000.0001) %MON obc_N_vVel_min               =   1.4742594941023E-05
(PID.TID 0000.0001) %MON obc_N_vVel_mean              =   1.4742594941023E-05
(PID.TID 0000.0001) %MON obc_N_vVel_sd                =  -2.8951321439356E-24
(PID.TID 0000.0001) %MON obc_N_vVel_Int               =   9.7301126610751E+02
(PID.TID 0000.0001) // =======================================================
(PID.TID 0000.0001) // End OBCS MONITOR field statistics
(PID.TID 0000.0001) // =======================================================
 cg2d: Sum(rhs),rhsMax =   4.52177882648303E+00  2.99888989417830E+02
(PID.TID 0000.0001)      cg2d_init_res =   6.26514804247053E-06
(PID.TID 0000.0001)      cg2d_iters(min,last) =      -1      77
(PID.TID 0000.0001)      cg2d_last_res =   9.38007604594710E-12
(PID.TID 0000.0001) // =======================================================
(PID.TID 0000.0001) // Begin MONITOR dynamic field statistics
(PID.TID 0000.0001) // =======================================================
(PID.TID 0000.0001) %MON time_tsnumber                =                   455
(PID.TID 0000.0001) %MON time_secondsf                =   4.5500000000000E+04
(PID.TID 0000.0001) %MON dynstat_eta_max              =   5.7925891521548E+00
(PID.TID 0000.0001) %MON dynstat_eta_min              =  -1.4198982586800E+01
(PID.TID 0000.0001) %MON dynstat_eta_mean             =  -2.5111697826758E+00
(PID.TID 0000.0001) %MON dynstat_eta_sd               =   4.9524043638190E+00
(PID.TID 0000.0001) %MON dynstat_eta_del2             =   2.0714114933129E-01
(PID.TID 0000.0001) %MON dynstat_uvel_max             =   1.7380197644411E-03
(PID.TID 0000.0001) %MON dynstat_uvel_min             =  -4.2500573494717E-03
(PID.TID 0000.0001) %MON dynstat_uvel_mean            =  -1.1824188087248E-07
(PID.TID 0000.0001) %MON dynstat_uvel_sd              =   1.7963818376540E-04
(PID.TID 0000.0001) %MON dynstat_uvel_del2            =   3.1881545040823E-07
(PID.TID 0000.0001) %MON dynstat_vvel_max             =   4.3534767435247E-03
(PID.TID 0000.0001) %MON dynstat_vvel_min             =  -2.3663528255771E-03
(PID.TID 0000.0001) %MON dynstat_vvel_mean            =   1.4980908471743E-05
(PID.TID 0000.0001) %MON dynstat_vvel_sd              =   1.6283855073622E-04
(PID.TID 0000.0001) %MON dynstat_vvel_del2            =   3.7044441916077E-07
(PID.TID 0000.0001) %MON dynstat_wvel_max             =   1.3655904372129E-04
(PID.TID 0000.0001) %MON dynstat_wvel_min             =  -1.4991952552077E-04
(PID.TID 0000.0001) %MON dynstat_wvel_mean            =   6.6239780843516E-09
(PID.TID 0000.0001) %MON dynstat_wvel_sd              =   2.6063559433541E-05
(PID.TID 0000.0001) %MON dynstat_wvel_del2            =   1.1440712214681E-07
(PID.TID 0000.0001) %MON dynstat_theta_max            =   1.2000000000000E+00
(PID.TID 0000.0001) %MON dynstat_theta_min            =  -1.0000000000000E+00
(PID.TID 0000.0001) %MON dynstat_theta_mean           =   5.6903687740159E-01
(PID.TID 0000.0001) %MON dynstat_theta_sd             =   8.6854925915950E-01
(PID.TID 0000.0001) %MON dynstat_theta_del2           =   1.0426813296008E-06
(PID.TID 0000.0001) %MON dynstat_salt_max             =   3.4700000000000E+01
(PID.TID 0000.0001) %MON dynstat_salt_min             =   3.4000000000000E+01
(PID.TID 0000.0001) %MON dynstat_salt_mean            =   3.4499228906125E+01
(PID.TID 0000.0001) %MON dynstat_salt_sd              =   2.7635380448424E-01
(PID.TID 0000.0001) %MON dynstat_salt_del2            =   3.7348021324591E-07
(PID.TID 0000.0001) %MON advcfl_uvel_max              =   4.2500573494717E-04
(PID.TID 0000.0001) %MON advcfl_vvel_max              =   4.3534767435247E-04
(PID.TID 0000.0001) %MON advcfl_wvel_max              =   7.4959762760387E-04
(PID.TID 0000.0001) %MON advcfl_W_hf_max              =   7.4959762760387E-04
(PID.TID 0000.0001) %MON pe_b_mean                    =  -8.3198417104076E-01
(PID.TID 0000.0001) %MON ke_max                       =   7.4728885426940E-06
(PID.TID 0000.0001) %MON ke_mean                      =   2.9183681335715E-08
(PID.TID 0000.0001) %MON ke_vol                       =   4.2725237331736E+12
(PID.TID 0000.0001) // =======================================================
(PID.TID 0000.0001) // End MONITOR dynamic field statistics
(PID.TID 0000.0001) // =======================================================
(PID.TID 0000.0001) // =======================================================
(PID.TID 0000.0001) // Begin OBCS MONITOR field statistics
(PID.TID 0000.0001) // =======================================================
(PID.TID 0000.0001) %MON obc_N_vVel_max               =   1.4744049888840E-05
(PID.TID 0000.0001) %MON obc_N_vVel_min               =   1.4744049888839E-05
(PID.TID 0000.0001) %MON obc_N_vVel_mean              =   1.4744049888839E-05
(PID.TID 0000.0001) %MON obc_N_vVel_sd                =   1.7685521454614E-12
(PID.TID 0000.0001) %MON obc_N_vVel_Int               =   9.7310729266339E+02
(PID.TID 0000.0001) // =======================================================
(PID.TID 0000.0001) // End OBCS MONITOR field statistics
(PID.TID 0000.0001) // =======================================================
 cg2d: Sum(rhs),rhsMax =   4.52180244219854E+00  2.99889065151909E+02
(PID.TID 0000.0001)      cg2d_init_res =   6.26005165306828E-06
(PID.TID 0000.0001)      cg2d_iters(min,last) =      -1      77
(PID.TID 0000.0001)      cg2d_last_res =   9.38256119639259E-12
(PID.TID 0000.0001) // =======================================================
(PID.TID 0000.0001) // Begin MONITOR dynamic field statistics
(PID.TID 0000.0001) // =======================================================
(PID.TID 0000.0001) %MON time_tsnumber                =                   456
(PID.TID 0000.0001) %MON time_secondsf                =   4.5600000000000E+04
(PID.TID 0000.0001) %MON dynstat_eta_max              =   5.7925558408038E+00
(PID.TID 0000.0001) %MON dynstat_eta_min              =  -1.4199005929558E+01
(PID.TID 0000.0001) %MON dynstat_eta_mean             =  -2.5111835318380E+00
(PID.TID 0000.0001) %MON dynstat_eta_sd               =   4.9524089182866E+00
(PID.TID 0000.0001) %MON dynstat_eta_del2             =   2.0714115722680E-01
(PID.TID 0000.0001) %MON dynstat_uvel_max             =   1.7316772339058E-03
(PID.TID 0000.0001) %MON dynstat_uvel_min             =  -4.2641325675614E-03
(PID.TID 0000.0001) %MON dynstat_uvel_mean            =  -1.1823887194084E-07
(PID.TID 0000.0001) %MON dynstat_uvel_sd              =   1.8005915305838E-04
(PID.TID 0000.0001) %MON dynstat_uvel_del2            =   3.1916557290617E-07
(PID.TID 0000.0001) %MON dynstat_vvel_max             =   4.3508267495920E-03
(PID.TID 0000.0001) %MON dynstat_vvel_min             =  -2.3669220923086E-03
(PID.TID 0000.0001) %MON dynstat_vvel_mean            =   1.4981957394418E-05
(PID.TID 0000.0001) %MON dynstat_vvel_sd              =   1.6330808985169E-04
(PID.TID 0000.0001) %MON dynstat_vvel_del2            =   3.7057582113257E-07
(PID.TID 0000.0001) %MON dynstat_wvel_max             =   1.4145265945261E-04
(PID.TID 0000.0001) %MON dynstat_wvel_min             =  -1.5051395458817E-04
(PID.TID 0000.0001) %MON dynstat_wvel_mean            =   6.6223276848854E-09
(PID.TID 0000.0001) %MON dynstat_wvel_sd              =   2.6197708133248E-05
(PID.TID 0000.0001) %MON dynstat_wvel_del2            =   1.1450717501531E-07
(PID.TID 0000.0001) %MON dynstat_theta_max            =   1.2000000000000E+00
(PID.TID 0000.0001) %MON dynstat_theta_min            =  -1.0000000000000E+00
(PID.TID 0000.0001) %MON dynstat_theta_mean           =   5.6903656546713E-01
(PID.TID 0000.0001) %MON dynstat_theta_sd             =   8.6854909548035E-01
(PID.TID 0000.0001) %MON dynstat_theta_del2           =   1.0413418061412E-06
(PID.TID 0000.0001) %MON dynstat_salt_max             =   3.4700000000000E+01
(PID.TID 0000.0001) %MON dynstat_salt_min             =   3.4000000000000E+01
(PID.TID 0000.0001) %MON dynstat_salt_mean            =   3.4499228781452E+01
(PID.TID 0000.0001) %MON dynstat_salt_sd              =   2.7635374406172E-01
(PID.TID 0000.0001) %MON dynstat_salt_del2            =   3.7330406782723E-07
(PID.TID 0000.0001) %MON advcfl_uvel_max              =   4.2641325675614E-04
(PID.TID 0000.0001) %MON advcfl_vvel_max              =   4.3508267495920E-04
(PID.TID 0000.0001) %MON advcfl_wvel_max              =   7.5256977294085E-04
(PID.TID 0000.0001) %MON advcfl_W_hf_max              =   7.5256977294085E-04
(PID.TID 0000.0001) %MON pe_b_mean                    =  -8.3198811455012E-01
(PID.TID 0000.0001) %MON ke_max                       =   7.4496453224546E-06
(PID.TID 0000.0001) %MON ke_mean                      =   2.9334470309200E-08
(PID.TID 0000.0001) %MON ke_vol                       =   4.2725236514909E+12
(PID.TID 0000.0001) // =======================================================
(PID.TID 0000.0001) // End MONITOR dynamic field statistics
(PID.TID 0000.0001) // =======================================================
(PID.TID 0000.0001) // =======================================================
(PID.TID 0000.0001) // Begin OBCS MONITOR field statistics
(PID.TID 0000.0001) // =======================================================
(PID.TID 0000.0001) %MON obc_N_vVel_max               =   1.4745140601669E-05
(PID.TID 0000.0001) %MON obc_N_vVel_min               =   1.4745140601669E-05
(PID.TID 0000.0001) %MON obc_N_vVel_mean              =   1.4745140601669E-05
(PID.TID 0000.0001) %MON obc_N_vVel_sd                =  -7.9357640016806E-24
(PID.TID 0000.0001) %MON obc_N_vVel_Int               =   9.7317927971017E+02
(PID.TID 0000.0001) // =======================================================
(PID.TID 0000.0001) // End OBCS MONITOR field statistics
(PID.TID 0000.0001) // =======================================================
 cg2d: Sum(rhs),rhsMax =   4.52182605329742E+00  2.99889140884113E+02
(PID.TID 0000.0001)      cg2d_init_res =   6.25504743097358E-06
(PID.TID 0000.0001)      cg2d_iters(min,last) =      -1      77
(PID.TID 0000.0001)      cg2d_last_res =   9.39220188383829E-12
(PID.TID 0000.0001) // =======================================================
(PID.TID 0000.0001) // Begin MONITOR dynamic field statistics
(PID.TID 0000.0001) // =======================================================
(PID.TID 0000.0001) %MON time_tsnumber                =                   457
(PID.TID 0000.0001) %MON time_secondsf                =   4.5700000000000E+04
(PID.TID 0000.0001) %MON dynstat_eta_max              =   5.7925225294533E+00
(PID.TID 0000.0001) %MON dynstat_eta_min              =  -1.4199029263644E+01
(PID.TID 0000.0001) %MON dynstat_eta_mean             =  -2.5111972784273E+00
(PID.TID 0000.0001) %MON dynstat_eta_sd               =   4.9524134718560E+00
(PID.TID 0000.0001) %MON dynstat_eta_del2             =   2.0714116514914E-01
(PID.TID 0000.0001) %MON dynstat_uvel_max             =   1.7252852992528E-03
(PID.TID 0000.0001) %MON dynstat_uvel_min             =  -4.2782350475825E-03
(PID.TID 0000.0001) %MON dynstat_uvel_mean            =  -1.1823373809368E-07
(PID.TID 0000.0001) %MON dynstat_uvel_sd              =   1.8048290313162E-04
(PID.TID 0000.0001) %MON dynstat_uvel_del2            =   3.1952000343518E-07
(PID.TID 0000.0001) %MON dynstat_vvel_max             =   4.3481105758501E-03
(PID.TID 0000.0001) %MON dynstat_vvel_min             =  -2.3674544904679E-03
(PID.TID 0000.0001) %MON dynstat_vvel_mean            =   1.4982503217252E-05
(PID.TID 0000.0001) %MON dynstat_vvel_sd              =   1.6373481522369E-04
(PID.TID 0000.0001) %MON dynstat_vvel_del2            =   3.7072402281625E-07
(PID.TID 0000.0001) %MON dynstat_wvel_max             =   1.4513277980991E-04
(PID.TID 0000.0001) %MON dynstat_wvel_min             =  -1.5110913605871E-04
(PID.TID 0000.0001) %MON dynstat_wvel_mean            =   6.6197372343854E-09
(PID.TID 0000.0001) %MON dynstat_wvel_sd              =   2.6327368899725E-05
(PID.TID 0000.0001) %MON dynstat_wvel_del2            =   1.1463019420199E-07
(PID.TID 0000.0001) %MON dynstat_theta_max            =   1.2000000000000E+00
(PID.TID 0000.0001) %MON dynstat_theta_min            =  -1.0000000000000E+00
(PID.TID 0000.0001) %MON dynstat_theta_mean           =   5.6903625335359E-01
(PID.TID 0000.0001) %MON dynstat_theta_sd             =   8.6854893138875E-01
(PID.TID 0000.0001) %MON dynstat_theta_del2           =   1.0399839268028E-06
(PID.TID 0000.0001) %MON dynstat_salt_max             =   3.4700000000000E+01
(PID.TID 0000.0001) %MON dynstat_salt_min             =   3.4000000000000E+01
(PID.TID 0000.0001) %MON dynstat_salt_mean            =   3.4499228656689E+01
(PID.TID 0000.0001) %MON dynstat_salt_sd              =   2.7635368348767E-01
(PID.TID 0000.0001) %MON dynstat_salt_del2            =   3.7312417791725E-07
(PID.TID 0000.0001) %MON advcfl_uvel_max              =   4.2782350475825E-04
(PID.TID 0000.0001) %MON advcfl_vvel_max              =   4.3481105758501E-04
(PID.TID 0000.0001) %MON advcfl_wvel_max              =   7.5554568029355E-04
(PID.TID 0000.0001) %MON advcfl_W_hf_max              =   7.5554568029355E-04
(PID.TID 0000.0001) %MON pe_b_mean                    =  -8.3199205696189E-01
(PID.TID 0000.0001) %MON ke_max                       =   7.4262868610494E-06
(PID.TID 0000.0001) %MON ke_mean                      =   2.9479127479803E-08
(PID.TID 0000.0001) %MON ke_vol                       =   4.2725235698209E+12
(PID.TID 0000.0001) // =======================================================
(PID.TID 0000.0001) // End MONITOR dynamic field statistics
(PID.TID 0000.0001) // =======================================================
(PID.TID 0000.0001) // =======================================================
(PID.TID 0000.0001) // Begin OBCS MONITOR field statistics
(PID.TID 0000.0001) // =======================================================
(PID.TID 0000.0001) %MON obc_N_vVel_max               =   1.4745833903782E-05
(PID.TID 0000.0001) %MON obc_N_vVel_min               =   1.4745833903781E-05
(PID.TID 0000.0001) %MON obc_N_vVel_mean              =   1.4745833903782E-05
(PID.TID 0000.0001) %MON obc_N_vVel_sd                =  -3.6964633623463E-24
(PID.TID 0000.0001) %MON obc_N_vVel_Int               =   9.7322503764960E+02
(PID.TID 0000.0001) // =======================================================
(PID.TID 0000.0001) // End OBCS MONITOR field statistics
(PID.TID 0000.0001) // =======================================================
 cg2d: Sum(rhs),rhsMax =   4.52184965886467E+00  2.99889216619746E+02
(PID.TID 0000.0001)      cg2d_init_res =   6.25020934567171E-06
(PID.TID 0000.0001)      cg2d_iters(min,last) =      -1      77
(PID.TID 0000.0001)      cg2d_last_res =   9.41156326558740E-12
(PID.TID 0000.0001) // =======================================================
(PID.TID 0000.0001) // Begin MONITOR dynamic field statistics
(PID.TID 0000.0001) // =======================================================
(PID.TID 0000.0001) %MON time_tsnumber                =                   458
(PID.TID 0000.0001) %MON time_secondsf                =   4.5800000000000E+04
(PID.TID 0000.0001) %MON dynstat_eta_max              =   5.7924892184805E+00
(PID.TID 0000.0001) %MON dynstat_eta_min              =  -1.4199052588310E+01
(PID.TID 0000.0001) %MON dynstat_eta_mean             =  -2.5112110219800E+00
(PID.TID 0000.0001) %MON dynstat_eta_sd               =   4.9524180243634E+00
(PID.TID 0000.0001) %MON dynstat_eta_del2             =   2.0714117309804E-01
(PID.TID 0000.0001) %MON dynstat_uvel_max             =   1.7188443096665E-03
(PID.TID 0000.0001) %MON dynstat_uvel_min             =  -4.2923649249094E-03
(PID.TID 0000.0001) %MON dynstat_uvel_mean            =  -1.1822734299690E-07
(PID.TID 0000.0001) %MON dynstat_uvel_sd              =   1.8090946529438E-04
(PID.TID 0000.0001) %MON dynstat_uvel_del2            =   3.1987873463995E-07
(PID.TID 0000.0001) %MON dynstat_vvel_max             =   4.3453288537156E-03
(PID.TID 0000.0001) %MON dynstat_vvel_min             =  -2.3679501348148E-03
(PID.TID 0000.0001) %MON dynstat_vvel_mean            =   1.4982533498111E-05
(PID.TID 0000.0001) %MON dynstat_vvel_sd              =   1.6411100821216E-04
(PID.TID 0000.0001) %MON dynstat_vvel_del2            =   3.7088373237172E-07
(PID.TID 0000.0001) %MON dynstat_wvel_max             =   1.4755545455417E-04
(PID.TID 0000.0001) %MON dynstat_wvel_min             =  -1.5170507204843E-04
(PID.TID 0000.0001) %MON dynstat_wvel_mean            =   6.6163089753297E-09
(PID.TID 0000.0001) %MON dynstat_wvel_sd              =   2.6448604564749E-05
(PID.TID 0000.0001) %MON dynstat_wvel_del2            =   1.1477359602045E-07
(PID.TID 0000.0001) %MON dynstat_theta_max            =   1.2000000000000E+00
(PID.TID 0000.0001) %MON dynstat_theta_min            =  -1.0000000000000E+00
(PID.TID 0000.0001) %MON dynstat_theta_mean           =   5.6903594106357E-01
(PID.TID 0000.0001) %MON dynstat_theta_sd             =   8.6854876692840E-01
(PID.TID 0000.0001) %MON dynstat_theta_del2           =   1.0386381680943E-06
(PID.TID 0000.0001) %MON dynstat_salt_max             =   3.4700000000000E+01
(PID.TID 0000.0001) %MON dynstat_salt_min             =   3.4000000000000E+01
(PID.TID 0000.0001) %MON dynstat_salt_mean            =   3.4499228531837E+01
(PID.TID 0000.0001) %MON dynstat_salt_sd              =   2.7635362277581E-01
(PID.TID 0000.0001) %MON dynstat_salt_del2            =   3.7294915360515E-07
(PID.TID 0000.0001) %MON advcfl_uvel_max              =   4.2923649249094E-04
(PID.TID 0000.0001) %MON advcfl_vvel_max              =   4.3453288537156E-04
(PID.TID 0000.0001) %MON advcfl_wvel_max              =   7.5852536024217E-04
(PID.TID 0000.0001) %MON advcfl_W_hf_max              =   7.5852536024217E-04
(PID.TID 0000.0001) %MON pe_b_mean                    =  -8.3199599814739E-01
(PID.TID 0000.0001) %MON ke_max                       =   7.4028150119489E-06
(PID.TID 0000.0001) %MON ke_mean                      =   2.9616340242673E-08
(PID.TID 0000.0001) %MON ke_vol                       =   4.2725234881661E+12
(PID.TID 0000.0001) // =======================================================
(PID.TID 0000.0001) // End MONITOR dynamic field statistics
(PID.TID 0000.0001) // =======================================================
(PID.TID 0000.0001) // =======================================================
(PID.TID 0000.0001) // Begin OBCS MONITOR field statistics
(PID.TID 0000.0001) // =======================================================
(PID.TID 0000.0001) %MON obc_N_vVel_max               =   1.4746110442235E-05
(PID.TID 0000.0001) %MON obc_N_vVel_min               =   1.4746110442235E-05
(PID.TID 0000.0001) %MON obc_N_vVel_mean              =   1.4746110442235E-05
(PID.TID 0000.0001) %MON obc_N_vVel_sd                =   2.0273267296178E-12
(PID.TID 0000.0001) %MON obc_N_vVel_Int               =   9.7324328918751E+02
(PID.TID 0000.0001) // =======================================================
(PID.TID 0000.0001) // End OBCS MONITOR field statistics
(PID.TID 0000.0001) // =======================================================
 cg2d: Sum(rhs),rhsMax =   4.52187325797704E+00  2.99889292364857E+02
(PID.TID 0000.0001)      cg2d_init_res =   6.24564976969558E-06
(PID.TID 0000.0001)      cg2d_iters(min,last) =      -1      77
(PID.TID 0000.0001)      cg2d_last_res =   9.43811232140727E-12
(PID.TID 0000.0001) // =======================================================
(PID.TID 0000.0001) // Begin MONITOR dynamic field statistics
(PID.TID 0000.0001) // =======================================================
(PID.TID 0000.0001) %MON time_tsnumber                =                   459
(PID.TID 0000.0001) %MON time_secondsf                =   4.5900000000000E+04
(PID.TID 0000.0001) %MON dynstat_eta_max              =   5.7924559082565E+00
(PID.TID 0000.0001) %MON dynstat_eta_min              =  -1.4199075902831E+01
(PID.TID 0000.0001) %MON dynstat_eta_mean             =  -2.5112247620339E+00
(PID.TID 0000.0001) %MON dynstat_eta_sd               =   4.9524225756613E+00
(PID.TID 0000.0001) %MON dynstat_eta_del2             =   2.0714118107355E-01
(PID.TID 0000.0001) %MON dynstat_uvel_max             =   1.7123546154412E-03
(PID.TID 0000.0001) %MON dynstat_uvel_min             =  -4.3065223370258E-03
(PID.TID 0000.0001) %MON dynstat_uvel_mean            =  -1.1822060846839E-07
(PID.TID 0000.0001) %MON dynstat_uvel_sd              =   1.8133884038636E-04
(PID.TID 0000.0001) %MON dynstat_uvel_del2            =   3.2024174723340E-07
(PID.TID 0000.0001) %MON dynstat_vvel_max             =   4.3424822370914E-03
(PID.TID 0000.0001) %MON dynstat_vvel_min             =  -2.3684091260119E-03
(PID.TID 0000.0001) %MON dynstat_vvel_mean            =   1.4982053161683E-05
(PID.TID 0000.0001) %MON dynstat_vvel_sd              =   1.6442941426694E-04
(PID.TID 0000.0001) %MON dynstat_vvel_del2            =   3.7104984334822E-07
(PID.TID 0000.0001) %MON dynstat_wvel_max             =   1.4868897411792E-04
(PID.TID 0000.0001) %MON dynstat_wvel_min             =  -1.5230176495984E-04
(PID.TID 0000.0001) %MON dynstat_wvel_mean            =   6.6121717677066E-09
(PID.TID 0000.0001) %MON dynstat_wvel_sd              =   2.6557472609646E-05
(PID.TID 0000.0001) %MON dynstat_wvel_del2            =   1.1493541322514E-07
(PID.TID 0000.0001) %MON dynstat_theta_max            =   1.2000000000000E+00
(PID.TID 0000.0001) %MON dynstat_theta_min            =  -1.0000000000000E+00
(PID.TID 0000.0001) %MON dynstat_theta_mean           =   5.6903562860026E-01
(PID.TID 0000.0001) %MON dynstat_theta_sd             =   8.6854860212003E-01
(PID.TID 0000.0001) %MON dynstat_theta_del2           =   1.0373365469062E-06
(PID.TID 0000.0001) %MON dynstat_salt_max             =   3.4700000000000E+01
(PID.TID 0000.0001) %MON dynstat_salt_min             =   3.4000000000000E+01
(PID.TID 0000.0001) %MON dynstat_salt_mean            =   3.4499228406896E+01
(PID.TID 0000.0001) %MON dynstat_salt_sd              =   2.7635356193296E-01
(PID.TID 0000.0001) %MON dynstat_salt_del2            =   3.7278798339052E-07
(PID.TID 0000.0001) %MON advcfl_uvel_max              =   4.3065223370258E-04
(PID.TID 0000.0001) %MON advcfl_vvel_max              =   4.3424822370914E-04
(PID.TID 0000.0001) %MON advcfl_wvel_max              =   7.6150882479920E-04
(PID.TID 0000.0001) %MON advcfl_W_hf_max              =   7.6150882479920E-04
(PID.TID 0000.0001) %MON pe_b_mean                    =  -8.3199993798290E-01
(PID.TID 0000.0001) %MON ke_max                       =   7.3792316705436E-06
(PID.TID 0000.0001) %MON ke_mean                      =   2.9744862541441E-08
(PID.TID 0000.0001) %MON ke_vol                       =   4.2725234065294E+12
(PID.TID 0000.0001) // =======================================================
(PID.TID 0000.0001) // End MONITOR dynamic field statistics
(PID.TID 0000.0001) // =======================================================
(PID.TID 0000.0001) // =======================================================
(PID.TID 0000.0001) // Begin OBCS MONITOR field statistics
(PID.TID 0000.0001) // =======================================================
(PID.TID 0000.0001) %MON obc_N_vVel_max               =   1.4745965129291E-05
(PID.TID 0000.0001) %MON obc_N_vVel_min               =   1.4745965129291E-05
(PID.TID 0000.0001) %MON obc_N_vVel_mean              =   1.4745965129291E-05
(PID.TID 0000.0001) %MON obc_N_vVel_sd                =   3.8753706915166E-12
(PID.TID 0000.0001) %MON obc_N_vVel_Int               =   9.7323369853319E+02
(PID.TID 0000.0001) // =======================================================
(PID.TID 0000.0001) // End OBCS MONITOR field statistics
(PID.TID 0000.0001) // =======================================================
 cg2d: Sum(rhs),rhsMax =   4.52189684971348E+00  2.99889368126018E+02
(PID.TID 0000.0001)      cg2d_init_res =   6.24148301357418E-06
(PID.TID 0000.0001)      cg2d_iters(min,last) =      -1      77
(PID.TID 0000.0001)      cg2d_last_res =   9.46414677054354E-12
(PID.TID 0000.0001) // =======================================================
(PID.TID 0000.0001) // Begin MONITOR dynamic field statistics
(PID.TID 0000.0001) // =======================================================
(PID.TID 0000.0001) %MON time_tsnumber                =                   460
(PID.TID 0000.0001) %MON time_secondsf                =   4.6000000000000E+04
(PID.TID 0000.0001) %MON dynstat_eta_max              =   5.7924225991250E+00
(PID.TID 0000.0001) %MON dynstat_eta_min              =  -1.4199099206545E+01
(PID.TID 0000.0001) %MON dynstat_eta_mean             =  -2.5112384981326E+00
(PID.TID 0000.0001) %MON dynstat_eta_sd               =   4.9524271256217E+00
(PID.TID 0000.0001) %MON dynstat_eta_del2             =   2.0714118907576E-01
(PID.TID 0000.0001) %MON dynstat_uvel_max             =   1.7058165679524E-03
(PID.TID 0000.0001) %MON dynstat_uvel_min             =  -4.3207074221936E-03
(PID.TID 0000.0001) %MON dynstat_uvel_mean            =  -1.1821448272560E-07
(PID.TID 0000.0001) %MON dynstat_uvel_sd              =   1.8177099693251E-04
(PID.TID 0000.0001) %MON dynstat_uvel_del2            =   3.2060900726852E-07
(PID.TID 0000.0001) %MON dynstat_vvel_max             =   4.3395714012968E-03
(PID.TID 0000.0001) %MON dynstat_vvel_min             =  -2.3688315511095E-03
(PID.TID 0000.0001) %MON dynstat_vvel_mean            =   1.4981084105832E-05
(PID.TID 0000.0001) %MON dynstat_vvel_sd              =   1.6468340365663E-04
(PID.TID 0000.0001) %MON dynstat_vvel_del2            =   3.7121714431838E-07
(PID.TID 0000.0001) %MON dynstat_wvel_max             =   1.4851449327050E-04
(PID.TID 0000.0001) %MON dynstat_wvel_min             =  -1.5289921744297E-04
(PID.TID 0000.0001) %MON dynstat_wvel_mean            =   6.6074757024936E-09
(PID.TID 0000.0001) %MON dynstat_wvel_sd              =   2.6650072952957E-05
(PID.TID 0000.0001) %MON dynstat_wvel_del2            =   1.1511372226419E-07
(PID.TID 0000.0001) %MON dynstat_theta_max            =   1.2000000000000E+00
(PID.TID 0000.0001) %MON dynstat_theta_min            =  -1.0000000000000E+00
(PID.TID 0000.0001) %MON dynstat_theta_mean           =   5.6903531596599E-01
(PID.TID 0000.0001) %MON dynstat_theta_sd             =   8.6854843695810E-01
(PID.TID 0000.0001) %MON dynstat_theta_del2           =   1.0361131793775E-06
(PID.TID 0000.0001) %MON dynstat_salt_max             =   3.4700000000000E+01
(PID.TID 0000.0001) %MON dynstat_salt_min             =   3.4000000000000E+01
(PID.TID 0000.0001) %MON dynstat_salt_mean            =   3.4499228281869E+01
(PID.TID 0000.0001) %MON dynstat_salt_sd              =   2.7635350095726E-01
(PID.TID 0000.0001) %MON dynstat_salt_del2            =   3.7265021256966E-07
(PID.TID 0000.0001) %MON advcfl_uvel_max              =   4.3207074221936E-04
(PID.TID 0000.0001) %MON advcfl_vvel_max              =   4.3395714012968E-04
(PID.TID 0000.0001) %MON advcfl_wvel_max              =   7.6449608721483E-04
(PID.TID 0000.0001) %MON advcfl_W_hf_max              =   7.6449608721483E-04
(PID.TID 0000.0001) %MON pe_b_mean                    =  -8.3200387634996E-01
(PID.TID 0000.0001) %MON ke_max                       =   7.3555387720189E-06
(PID.TID 0000.0001) %MON ke_mean                      =   2.9863545720915E-08
(PID.TID 0000.0001) %MON ke_vol                       =   4.2725233249135E+12
(PID.TID 0000.0001) // =======================================================
(PID.TID 0000.0001) // End MONITOR dynamic field statistics
(PID.TID 0000.0001) // =======================================================
(PID.TID 0000.0001) // =======================================================
(PID.TID 0000.0001) // Begin OBCS MONITOR field statistics
(PID.TID 0000.0001) // =======================================================
(PID.TID 0000.0001) %MON obc_N_vVel_max               =   1.4745407120858E-05
(PID.TID 0000.0001) %MON obc_N_vVel_min               =   1.4745407120858E-05
(PID.TID 0000.0001) %MON obc_N_vVel_mean              =   1.4745407120858E-05
(PID.TID 0000.0001) %MON obc_N_vVel_sd                =  -1.1037691298754E-23
(PID.TID 0000.0001) %MON obc_N_vVel_Int               =   9.7319686997663E+02
(PID.TID 0000.0001) // =======================================================
(PID.TID 0000.0001) // End OBCS MONITOR field statistics
(PID.TID 0000.0001) // =======================================================
 cg2d: Sum(rhs),rhsMax =   4.52192043318317E+00  2.99889443910199E+02
(PID.TID 0000.0001)      cg2d_init_res =   6.23781842414728E-06
(PID.TID 0000.0001)      cg2d_iters(min,last) =      -1      77
(PID.TID 0000.0001)      cg2d_last_res =   9.48131678842005E-12
(PID.TID 0000.0001) // =======================================================
(PID.TID 0000.0001) // Begin MONITOR dynamic field statistics
(PID.TID 0000.0001) // =======================================================
(PID.TID 0000.0001) %MON time_tsnumber                =                   461
(PID.TID 0000.0001) %MON time_secondsf                =   4.6100000000000E+04
(PID.TID 0000.0001) %MON dynstat_eta_max              =   5.7923892913970E+00
(PID.TID 0000.0001) %MON dynstat_eta_min              =  -1.4199122498862E+01
(PID.TID 0000.0001) %MON dynstat_eta_mean             =  -2.5112522298398E+00
(PID.TID 0000.0001) %MON dynstat_eta_sd               =   4.9524316741310E+00
(PID.TID 0000.0001) %MON dynstat_eta_del2             =   2.0714119710469E-01
(PID.TID 0000.0001) %MON dynstat_uvel_max             =   1.6992305196450E-03
(PID.TID 0000.0001) %MON dynstat_uvel_min             =  -4.3349203196845E-03
(PID.TID 0000.0001) %MON dynstat_uvel_mean            =  -1.1820986849650E-07
(PID.TID 0000.0001) %MON dynstat_uvel_sd              =   1.8220586971697E-04
(PID.TID 0000.0001) %MON dynstat_uvel_del2            =   3.2098046360195E-07
(PID.TID 0000.0001) %MON dynstat_vvel_max             =   4.3365970419931E-03
(PID.TID 0000.0001) %MON dynstat_vvel_min             =  -2.3692174846506E-03
(PID.TID 0000.0001) %MON dynstat_vvel_mean            =   1.4979664181597E-05
(PID.TID 0000.0001) %MON dynstat_vvel_sd              =   1.6486712989682E-04
(PID.TID 0000.0001) %MON dynstat_vvel_del2            =   3.7137995702442E-07
(PID.TID 0000.0001) %MON dynstat_wvel_max             =   1.4702653213814E-04
(PID.TID 0000.0001) %MON dynstat_wvel_min             =  -1.5349743247661E-04
(PID.TID 0000.0001) %MON dynstat_wvel_mean            =   6.6023871579150E-09
(PID.TID 0000.0001) %MON dynstat_wvel_sd              =   2.6722591203790E-05
(PID.TID 0000.0001) %MON dynstat_wvel_del2            =   1.1530594505125E-07
(PID.TID 0000.0001) %MON dynstat_theta_max            =   1.2000000000000E+00
(PID.TID 0000.0001) %MON dynstat_theta_min            =  -1.0000000000000E+00
(PID.TID 0000.0001) %MON dynstat_theta_mean           =   5.6903500316216E-01
(PID.TID 0000.0001) %MON dynstat_theta_sd             =   8.6854827145905E-01
(PID.TID 0000.0001) %MON dynstat_theta_del2           =   1.0350034807129E-06
(PID.TID 0000.0001) %MON dynstat_salt_max             =   3.4700000000000E+01
(PID.TID 0000.0001) %MON dynstat_salt_min             =   3.4000000000000E+01
(PID.TID 0000.0001) %MON dynstat_salt_mean            =   3.4499228156755E+01
(PID.TID 0000.0001) %MON dynstat_salt_sd              =   2.7635343985389E-01
(PID.TID 0000.0001) %MON dynstat_salt_del2            =   3.7254571698345E-07
(PID.TID 0000.0001) %MON advcfl_uvel_max              =   4.3349203196845E-04
(PID.TID 0000.0001) %MON advcfl_vvel_max              =   4.3365970419931E-04
(PID.TID 0000.0001) %MON advcfl_wvel_max              =   7.6748716238306E-04
(PID.TID 0000.0001) %MON advcfl_W_hf_max              =   7.6748716238306E-04
(PID.TID 0000.0001) %MON pe_b_mean                    =  -8.3200781313887E-01
(PID.TID 0000.0001) %MON ke_max                       =   7.3317382868568E-06
(PID.TID 0000.0001) %MON ke_mean                      =   2.9971369329808E-08
(PID.TID 0000.0001) %MON ke_vol                       =   4.2725232433211E+12
(PID.TID 0000.0001) // =======================================================
(PID.TID 0000.0001) // End MONITOR dynamic field statistics
(PID.TID 0000.0001) // =======================================================
(PID.TID 0000.0001) // =======================================================
(PID.TID 0000.0001) // Begin OBCS MONITOR field statistics
(PID.TID 0000.0001) // =======================================================
(PID.TID 0000.0001) %MON obc_N_vVel_max               =   1.4744459212410E-05
(PID.TID 0000.0001) %MON obc_N_vVel_min               =   1.4744459212410E-05
(PID.TID 0000.0001) %MON obc_N_vVel_mean              =   1.4744459212410E-05
(PID.TID 0000.0001) %MON obc_N_vVel_sd                =   4.6791491575406E-12
(PID.TID 0000.0001) %MON obc_N_vVel_Int               =   9.7313430801903E+02
(PID.TID 0000.0001) // =======================================================
(PID.TID 0000.0001) // End OBCS MONITOR field statistics
(PID.TID 0000.0001) // =======================================================
 cg2d: Sum(rhs),rhsMax =   4.52194400757782E+00  2.99889519724537E+02
(PID.TID 0000.0001)      cg2d_init_res =   6.23477498436774E-06
(PID.TID 0000.0001)      cg2d_iters(min,last) =      -1      77
(PID.TID 0000.0001)      cg2d_last_res =   9.48679128494812E-12
(PID.TID 0000.0001) // =======================================================
(PID.TID 0000.0001) // Begin MONITOR dynamic field statistics
(PID.TID 0000.0001) // =======================================================
(PID.TID 0000.0001) %MON time_tsnumber                =                   462
(PID.TID 0000.0001) %MON time_secondsf                =   4.6200000000000E+04
(PID.TID 0000.0001) %MON dynstat_eta_max              =   5.7923559853425E+00
(PID.TID 0000.0001) %MON dynstat_eta_min              =  -1.4199145779294E+01
(PID.TID 0000.0001) %MON dynstat_eta_mean             =  -2.5112659567662E+00
(PID.TID 0000.0001) %MON dynstat_eta_sd               =   4.9524362210990E+00
(PID.TID 0000.0001) %MON dynstat_eta_del2             =   2.0714120516014E-01
(PID.TID 0000.0001) %MON dynstat_uvel_max             =   1.6925968240395E-03
(PID.TID 0000.0001) %MON dynstat_uvel_min             =  -4.3491611696229E-03
(PID.TID 0000.0001) %MON dynstat_uvel_mean            =  -1.1820758620051E-07
(PID.TID 0000.0001) %MON dynstat_uvel_sd              =   1.8264335882820E-04
(PID.TID 0000.0001) %MON dynstat_uvel_del2            =   3.2135604547210E-07
(PID.TID 0000.0001) %MON dynstat_vvel_max             =   4.3335598732410E-03
(PID.TID 0000.0001) %MON dynstat_vvel_min             =  -2.3695669897261E-03
(PID.TID 0000.0001) %MON dynstat_vvel_mean            =   1.4977845631055E-05
(PID.TID 0000.0001) %MON dynstat_vvel_sd              =   1.6497568454942E-04
(PID.TID 0000.0001) %MON dynstat_vvel_del2            =   3.7153177046008E-07
(PID.TID 0000.0001) %MON dynstat_wvel_max             =   1.4423331943324E-04
(PID.TID 0000.0001) %MON dynstat_wvel_min             =  -1.6026088033650E-04
(PID.TID 0000.0001) %MON dynstat_wvel_mean            =   6.5970838992450E-09
(PID.TID 0000.0001) %MON dynstat_wvel_sd              =   2.6771341778073E-05
(PID.TID 0000.0001) %MON dynstat_wvel_del2            =   1.1550813239359E-07
(PID.TID 0000.0001) %MON dynstat_theta_max            =   1.2000000000000E+00
(PID.TID 0000.0001) %MON dynstat_theta_min            =  -1.0000000000000E+00
(PID.TID 0000.0001) %MON dynstat_theta_mean           =   5.6903469019081E-01
(PID.TID 0000.0001) %MON dynstat_theta_sd             =   8.6854810563245E-01
(PID.TID 0000.0001) %MON dynstat_theta_del2           =   1.0340445719309E-06
(PID.TID 0000.0001) %MON dynstat_salt_max             =   3.4700000000000E+01
(PID.TID 0000.0001) %MON dynstat_salt_min             =   3.4000000000000E+01
(PID.TID 0000.0001) %MON dynstat_salt_mean            =   3.4499228031554E+01
(PID.TID 0000.0001) %MON dynstat_salt_sd              =   2.7635337862638E-01
(PID.TID 0000.0001) %MON dynstat_salt_del2            =   3.7248475180903E-07
(PID.TID 0000.0001) %MON advcfl_uvel_max              =   4.3491611696229E-04
(PID.TID 0000.0001) %MON advcfl_vvel_max              =   4.3335598732410E-04
(PID.TID 0000.0001) %MON advcfl_wvel_max              =   8.0130440168248E-04
(PID.TID 0000.0001) %MON advcfl_W_hf_max              =   8.0130440168248E-04
(PID.TID 0000.0001) %MON pe_b_mean                    =  -8.3201174825626E-01
(PID.TID 0000.0001) %MON ke_max                       =   7.3078322156576E-06
(PID.TID 0000.0001) %MON ke_mean                      =   3.0067471297112E-08
(PID.TID 0000.0001) %MON ke_vol                       =   4.2725231617548E+12
(PID.TID 0000.0001) // =======================================================
(PID.TID 0000.0001) // End MONITOR dynamic field statistics
(PID.TID 0000.0001) // =======================================================
(PID.TID 0000.0001) // =======================================================
(PID.TID 0000.0001) // Begin OBCS MONITOR field statistics
(PID.TID 0000.0001) // =======================================================
(PID.TID 0000.0001) %MON obc_N_vVel_max               =   1.4743156834489E-05
(PID.TID 0000.0001) %MON obc_N_vVel_min               =   1.4743156834489E-05
(PID.TID 0000.0001) %MON obc_N_vVel_mean              =   1.4743156834489E-05
(PID.TID 0000.0001) %MON obc_N_vVel_sd                =  -1.6130021944784E-23
(PID.TID 0000.0001) %MON obc_N_vVel_Int               =   9.7304835107629E+02
(PID.TID 0000.0001) // =======================================================
(PID.TID 0000.0001) // End OBCS MONITOR field statistics
(PID.TID 0000.0001) // =======================================================
 cg2d: Sum(rhs),rhsMax =   4.52196757218009E+00  2.99889595576149E+02
(PID.TID 0000.0001)      cg2d_init_res =   6.23242967431457E-06
(PID.TID 0000.0001)      cg2d_iters(min,last) =      -1      77
(PID.TID 0000.0001)      cg2d_last_res =   9.48424663376922E-12
(PID.TID 0000.0001) // =======================================================
(PID.TID 0000.0001) // Begin MONITOR dynamic field statistics
(PID.TID 0000.0001) // =======================================================
(PID.TID 0000.0001) %MON time_tsnumber                =                   463
(PID.TID 0000.0001) %MON time_secondsf                =   4.6300000000000E+04
(PID.TID 0000.0001) %MON dynstat_eta_max              =   5.7923226811782E+00
(PID.TID 0000.0001) %MON dynstat_eta_min              =  -1.4199169047463E+01
(PID.TID 0000.0001) %MON dynstat_eta_mean             =  -2.5112796785732E+00
(PID.TID 0000.0001) %MON dynstat_eta_sd               =   4.9524407664601E+00
(PID.TID 0000.0001) %MON dynstat_eta_del2             =   2.0714121324187E-01
(PID.TID 0000.0001) %MON dynstat_uvel_max             =   1.6859158355808E-03
(PID.TID 0000.0001) %MON dynstat_uvel_min             =  -4.3634301127184E-03
(PID.TID 0000.0001) %MON dynstat_uvel_mean            =  -1.1820838318006E-07
(PID.TID 0000.0001) %MON dynstat_uvel_sd              =   1.8308332926672E-04
(PID.TID 0000.0001) %MON dynstat_uvel_del2            =   3.2173566040136E-07
(PID.TID 0000.0001) %MON dynstat_vvel_max             =   4.3304606250905E-03
(PID.TID 0000.0001) %MON dynstat_vvel_min             =  -2.3698801202148E-03
(PID.TID 0000.0001) %MON dynstat_vvel_mean            =   1.4975693144269E-05
(PID.TID 0000.0001) %MON dynstat_vvel_sd              =   1.6500524771053E-04
(PID.TID 0000.0001) %MON dynstat_vvel_del2            =   3.7166494695535E-07
(PID.TID 0000.0001) %MON dynstat_wvel_max             =   1.4015698777444E-04
(PID.TID 0000.0001) %MON dynstat_wvel_min             =  -1.7162754253837E-04
(PID.TID 0000.0001) %MON dynstat_wvel_mean            =   6.5917480894461E-09
(PID.TID 0000.0001) %MON dynstat_wvel_sd              =   2.6792816359184E-05
(PID.TID 0000.0001) %MON dynstat_wvel_del2            =   1.1571434572207E-07
(PID.TID 0000.0001) %MON dynstat_theta_max            =   1.2000000000000E+00
(PID.TID 0000.0001) %MON dynstat_theta_min            =  -1.0000000000000E+00
(PID.TID 0000.0001) %MON dynstat_theta_mean           =   5.6903437705343E-01
(PID.TID 0000.0001) %MON dynstat_theta_sd             =   8.6854793944356E-01
(PID.TID 0000.0001) %MON dynstat_theta_del2           =   1.0332730731395E-06
(PID.TID 0000.0001) %MON dynstat_salt_max             =   3.4700000000000E+01
(PID.TID 0000.0001) %MON dynstat_salt_min             =   3.4000000000000E+01
(PID.TID 0000.0001) %MON dynstat_salt_mean            =   3.4499227906268E+01
(PID.TID 0000.0001) %MON dynstat_salt_sd              =   2.7635331726271E-01
(PID.TID 0000.0001) %MON dynstat_salt_del2            =   3.7247768430946E-07
(PID.TID 0000.0001) %MON advcfl_uvel_max              =   4.3634301127184E-04
(PID.TID 0000.0001) %MON advcfl_vvel_max              =   4.3304606250905E-04
(PID.TID 0000.0001) %MON advcfl_wvel_max              =   8.5813771269187E-04
(PID.TID 0000.0001) %MON advcfl_W_hf_max              =   8.5813771269187E-04
(PID.TID 0000.0001) %MON pe_b_mean                    =  -8.3201568162502E-01
(PID.TID 0000.0001) %MON ke_max                       =   7.2838225836327E-06
(PID.TID 0000.0001) %MON ke_mean                      =   3.0151176993218E-08
(PID.TID 0000.0001) %MON ke_vol                       =   4.2725230802168E+12
(PID.TID 0000.0001) // =======================================================
(PID.TID 0000.0001) // End MONITOR dynamic field statistics
(PID.TID 0000.0001) // =======================================================
(PID.TID 0000.0001) // =======================================================
(PID.TID 0000.0001) // Begin OBCS MONITOR field statistics
(PID.TID 0000.0001) // =======================================================
(PID.TID 0000.0001) %MON obc_N_vVel_max               =   1.4741546767977E-05
(PID.TID 0000.0001) %MON obc_N_vVel_min               =   1.4741546767977E-05
(PID.TID 0000.0001) %MON obc_N_vVel_mean              =   1.4741546767977E-05
(PID.TID 0000.0001) %MON obc_N_vVel_sd                =   2.6418433750728E-12
(PID.TID 0000.0001) %MON obc_N_vVel_Int               =   9.7294208668649E+02
(PID.TID 0000.0001) // =======================================================
(PID.TID 0000.0001) // End OBCS MONITOR field statistics
(PID.TID 0000.0001) // =======================================================
 cg2d: Sum(rhs),rhsMax =   4.52199112638948E+00  2.99889671471885E+02
(PID.TID 0000.0001)      cg2d_init_res =   6.23082841556833E-06
(PID.TID 0000.0001)      cg2d_iters(min,last) =      -1      77
(PID.TID 0000.0001)      cg2d_last_res =   9.48036296542064E-12
(PID.TID 0000.0001) // =======================================================
(PID.TID 0000.0001) // Begin MONITOR dynamic field statistics
(PID.TID 0000.0001) // =======================================================
(PID.TID 0000.0001) %MON time_tsnumber                =                   464
(PID.TID 0000.0001) %MON time_secondsf                =   4.6400000000000E+04
(PID.TID 0000.0001) %MON dynstat_eta_max              =   5.7922893790808E+00
(PID.TID 0000.0001) %MON dynstat_eta_min              =  -1.4199192303127E+01
(PID.TID 0000.0001) %MON dynstat_eta_mean             =  -2.5112933949847E+00
(PID.TID 0000.0001) %MON dynstat_eta_sd               =   4.9524453101787E+00
(PID.TID 0000.0001) %MON dynstat_eta_del2             =   2.0714122134987E-01
(PID.TID 0000.0001) %MON dynstat_uvel_max             =   1.6791879096215E-03
(PID.TID 0000.0001) %MON dynstat_uvel_min             =  -4.3777272903114E-03
(PID.TID 0000.0001) %MON dynstat_uvel_mean            =  -1.1821287436005E-07
(PID.TID 0000.0001) %MON dynstat_uvel_sd              =   1.8352561148659E-04
(PID.TID 0000.0001) %MON dynstat_uvel_del2            =   3.2211919306069E-07
(PID.TID 0000.0001) %MON dynstat_vvel_max             =   4.3273000405817E-03
(PID.TID 0000.0001) %MON dynstat_vvel_min             =  -2.3701569226926E-03
(PID.TID 0000.0001) %MON dynstat_vvel_mean            =   1.4973281502540E-05
(PID.TID 0000.0001) %MON dynstat_vvel_sd              =   1.6495323253546E-04
(PID.TID 0000.0001) %MON dynstat_vvel_del2            =   3.7177056921895E-07
(PID.TID 0000.0001) %MON dynstat_wvel_max             =   1.3494877984485E-04
(PID.TID 0000.0001) %MON dynstat_wvel_min             =  -1.8241072325760E-04
(PID.TID 0000.0001) %MON dynstat_wvel_mean            =   6.5865593522546E-09
(PID.TID 0000.0001) %MON dynstat_wvel_sd              =   2.6783742180192E-05
(PID.TID 0000.0001) %MON dynstat_wvel_del2            =   1.1591624241078E-07
(PID.TID 0000.0001) %MON dynstat_theta_max            =   1.2000000000000E+00
(PID.TID 0000.0001) %MON dynstat_theta_min            =  -1.0000000000000E+00
(PID.TID 0000.0001) %MON dynstat_theta_mean           =   5.6903406375137E-01
(PID.TID 0000.0001) %MON dynstat_theta_sd             =   8.6854777285987E-01
(PID.TID 0000.0001) %MON dynstat_theta_del2           =   1.0327255802444E-06
(PID.TID 0000.0001) %MON dynstat_salt_max             =   3.4700000000000E+01
(PID.TID 0000.0001) %MON dynstat_salt_min             =   3.4000000000000E+01
(PID.TID 0000.0001) %MON dynstat_salt_mean            =   3.4499227780896E+01
(PID.TID 0000.0001) %MON dynstat_salt_sd              =   2.7635325575305E-01
(PID.TID 0000.0001) %MON dynstat_salt_del2            =   3.7253451996070E-07
(PID.TID 0000.0001) %MON advcfl_uvel_max              =   4.3777272903114E-04
(PID.TID 0000.0001) %MON advcfl_vvel_max              =   4.3273000405817E-04
(PID.TID 0000.0001) %MON advcfl_wvel_max              =   9.1205361628802E-04
(PID.TID 0000.0001) %MON advcfl_W_hf_max              =   9.1205361628802E-04
(PID.TID 0000.0001) %MON pe_b_mean                    =  -8.3201961318737E-01
(PID.TID 0000.0001) %MON ke_max                       =   7.2597114322144E-06
(PID.TID 0000.0001) %MON ke_mean                      =   3.0222026565032E-08
(PID.TID 0000.0001) %MON ke_vol                       =   4.2725229987093E+12
(PID.TID 0000.0001) // =======================================================
(PID.TID 0000.0001) // End MONITOR dynamic field statistics
(PID.TID 0000.0001) // =======================================================
(PID.TID 0000.0001) // =======================================================
(PID.TID 0000.0001) // Begin OBCS MONITOR field statistics
(PID.TID 0000.0001) // =======================================================
(PID.TID 0000.0001) %MON obc_N_vVel_max               =   1.4739685395394E-05
(PID.TID 0000.0001) %MON obc_N_vVel_min               =   1.4739685395394E-05
(PID.TID 0000.0001) %MON obc_N_vVel_mean              =   1.4739685395394E-05
(PID.TID 0000.0001) %MON obc_N_vVel_sd                =  -1.3648480107125E-23
(PID.TID 0000.0001) %MON obc_N_vVel_Int               =   9.7281923609603E+02
(PID.TID 0000.0001) // =======================================================
(PID.TID 0000.0001) // End OBCS MONITOR field statistics
(PID.TID 0000.0001) // =======================================================
 cg2d: Sum(rhs),rhsMax =   4.52201466974419E+00  2.99889747418134E+02
(PID.TID 0000.0001)      cg2d_init_res =   6.22996081145309E-06
(PID.TID 0000.0001)      cg2d_iters(min,last) =      -1      77
(PID.TID 0000.0001)      cg2d_last_res =   9.48108023583429E-12
(PID.TID 0000.0001) // =======================================================
(PID.TID 0000.0001) // Begin MONITOR dynamic field statistics
(PID.TID 0000.0001) // =======================================================
(PID.TID 0000.0001) %MON time_tsnumber                =                   465
(PID.TID 0000.0001) %MON time_secondsf                =   4.6500000000000E+04
(PID.TID 0000.0001) %MON dynstat_eta_max              =   5.7922560791610E+00
(PID.TID 0000.0001) %MON dynstat_eta_min              =  -1.4199215546174E+01
(PID.TID 0000.0001) %MON dynstat_eta_mean             =  -2.5113071057976E+00
(PID.TID 0000.0001) %MON dynstat_eta_sd               =   4.9524498522492E+00
(PID.TID 0000.0001) %MON dynstat_eta_del2             =   2.0714122948414E-01
(PID.TID 0000.0001) %MON dynstat_uvel_max             =   1.6724134024555E-03
(PID.TID 0000.0001) %MON dynstat_uvel_min             =  -4.3920528439250E-03
(PID.TID 0000.0001) %MON dynstat_uvel_mean            =  -1.1822145943546E-07
(PID.TID 0000.0001) %MON dynstat_uvel_sd              =   1.8397000119099E-04
(PID.TID 0000.0001) %MON dynstat_uvel_del2            =   3.2250650191167E-07
(PID.TID 0000.0001) %MON dynstat_vvel_max             =   4.3240788726298E-03
(PID.TID 0000.0001) %MON dynstat_vvel_min             =  -2.3703974390283E-03
(PID.TID 0000.0001) %MON dynstat_vvel_mean            =   1.4970692843094E-05
(PID.TID 0000.0001) %MON dynstat_vvel_sd              =   1.6481842229998E-04
(PID.TID 0000.0001) %MON dynstat_vvel_del2            =   3.7183847627754E-07
(PID.TID 0000.0001) %MON dynstat_wvel_max             =   1.4136184118515E-04
(PID.TID 0000.0001) %MON dynstat_wvel_min             =  -1.9252536767920E-04
(PID.TID 0000.0001) %MON dynstat_wvel_mean            =   6.5816904792570E-09
(PID.TID 0000.0001) %MON dynstat_wvel_sd              =   2.6741153498425E-05
(PID.TID 0000.0001) %MON dynstat_wvel_del2            =   1.1610294121390E-07
(PID.TID 0000.0001) %MON dynstat_theta_max            =   1.2000000000000E+00
(PID.TID 0000.0001) %MON dynstat_theta_min            =  -1.0000000000000E+00
(PID.TID 0000.0001) %MON dynstat_theta_mean           =   5.6903375028596E-01
(PID.TID 0000.0001) %MON dynstat_theta_sd             =   8.6854760589739E-01
(PID.TID 0000.0001) %MON dynstat_theta_del2           =   1.0324378232968E-06
(PID.TID 0000.0001) %MON dynstat_salt_max             =   3.4700000000000E+01
(PID.TID 0000.0001) %MON dynstat_salt_min             =   3.4000000000000E+01
(PID.TID 0000.0001) %MON dynstat_salt_mean            =   3.4499227655440E+01
(PID.TID 0000.0001) %MON dynstat_salt_sd              =   2.7635319410260E-01
(PID.TID 0000.0001) %MON dynstat_salt_del2            =   3.7266511937678E-07
(PID.TID 0000.0001) %MON advcfl_uvel_max              =   4.3920528439250E-04
(PID.TID 0000.0001) %MON advcfl_vvel_max              =   4.3240788726298E-04
(PID.TID 0000.0001) %MON advcfl_wvel_max              =   9.6262683839599E-04
(PID.TID 0000.0001) %MON advcfl_W_hf_max              =   9.6262683839599E-04
(PID.TID 0000.0001) %MON pe_b_mean                    =  -8.3202354290737E-01
(PID.TID 0000.0001) %MON ke_max                       =   7.2355008121021E-06
(PID.TID 0000.0001) %MON ke_mean                      =   3.0279799610712E-08
(PID.TID 0000.0001) %MON ke_vol                       =   4.2725229172338E+12
(PID.TID 0000.0001) // =======================================================
(PID.TID 0000.0001) // End MONITOR dynamic field statistics
(PID.TID 0000.0001) // =======================================================
(PID.TID 0000.0001) // =======================================================
(PID.TID 0000.0001) // Begin OBCS MONITOR field statistics
(PID.TID 0000.0001) // =======================================================
(PID.TID 0000.0001) %MON obc_N_vVel_max               =   1.4737636544823E-05
(PID.TID 0000.0001) %MON obc_N_vVel_min               =   1.4737636544823E-05
(PID.TID 0000.0001) %MON obc_N_vVel_mean              =   1.4737636544823E-05
(PID.TID 0000.0001) %MON obc_N_vVel_sd                =   1.7758451749402E-12
(PID.TID 0000.0001) %MON obc_N_vVel_Int               =   9.7268401195832E+02
(PID.TID 0000.0001) // =======================================================
(PID.TID 0000.0001) // End OBCS MONITOR field statistics
(PID.TID 0000.0001) // =======================================================
 cg2d: Sum(rhs),rhsMax =   4.52203820193037E+00  2.99889823420608E+02
(PID.TID 0000.0001)      cg2d_init_res =   6.22975738858018E-06
(PID.TID 0000.0001)      cg2d_iters(min,last) =      -1      77
(PID.TID 0000.0001)      cg2d_last_res =   9.48908873935637E-12
(PID.TID 0000.0001) // =======================================================
(PID.TID 0000.0001) // Begin MONITOR dynamic field statistics
(PID.TID 0000.0001) // =======================================================
(PID.TID 0000.0001) %MON time_tsnumber                =                   466
(PID.TID 0000.0001) %MON time_secondsf                =   4.6600000000000E+04
(PID.TID 0000.0001) %MON dynstat_eta_max              =   5.7922227814802E+00
(PID.TID 0000.0001) %MON dynstat_eta_min              =  -1.4199238776638E+01
(PID.TID 0000.0001) %MON dynstat_eta_mean             =  -2.5113208108854E+00
(PID.TID 0000.0001) %MON dynstat_eta_sd               =   4.9524543926951E+00
(PID.TID 0000.0001) %MON dynstat_eta_del2             =   2.0714123764472E-01
(PID.TID 0000.0001) %MON dynstat_uvel_max             =   1.6655926713351E-03
(PID.TID 0000.0001) %MON dynstat_uvel_min             =  -4.4064069150584E-03
(PID.TID 0000.0001) %MON dynstat_uvel_mean            =  -1.1823439422239E-07
(PID.TID 0000.0001) %MON dynstat_uvel_sd              =   1.8441626118524E-04
(PID.TID 0000.0001) %MON dynstat_uvel_del2            =   3.2289741920923E-07
(PID.TID 0000.0001) %MON dynstat_vvel_max             =   4.3207978801050E-03
(PID.TID 0000.0001) %MON dynstat_vvel_min             =  -2.3706017091687E-03
(PID.TID 0000.0001) %MON dynstat_vvel_mean            =   1.4968013883770E-05
(PID.TID 0000.0001) %MON dynstat_vvel_sd              =   1.6460109589504E-04
(PID.TID 0000.0001) %MON dynstat_vvel_del2            =   3.7185752141521E-07
(PID.TID 0000.0001) %MON dynstat_wvel_max             =   1.4661178386151E-04
(PID.TID 0000.0001) %MON dynstat_wvel_min             =  -2.0188770734609E-04
(PID.TID 0000.0001) %MON dynstat_wvel_mean            =   6.5773015660237E-09
(PID.TID 0000.0001) %MON dynstat_wvel_sd              =   2.6662478041700E-05
(PID.TID 0000.0001) %MON dynstat_wvel_del2            =   1.1626120620394E-07
(PID.TID 0000.0001) %MON dynstat_theta_max            =   1.2000000000000E+00
(PID.TID 0000.0001) %MON dynstat_theta_min            =  -1.0000000000000E+00
(PID.TID 0000.0001) %MON dynstat_theta_mean           =   5.6903343665808E-01
(PID.TID 0000.0001) %MON dynstat_theta_sd             =   8.6854743855814E-01
(PID.TID 0000.0001) %MON dynstat_theta_del2           =   1.0324426665447E-06
(PID.TID 0000.0001) %MON dynstat_salt_max             =   3.4700000000000E+01
(PID.TID 0000.0001) %MON dynstat_salt_min             =   3.4000000000000E+01
(PID.TID 0000.0001) %MON dynstat_salt_mean            =   3.4499227529900E+01
(PID.TID 0000.0001) %MON dynstat_salt_sd              =   2.7635313231209E-01
(PID.TID 0000.0001) %MON dynstat_salt_del2            =   3.7287853585595E-07
(PID.TID 0000.0001) %MON advcfl_uvel_max              =   4.4064069150584E-04
(PID.TID 0000.0001) %MON advcfl_vvel_max              =   4.3207978801050E-04
(PID.TID 0000.0001) %MON advcfl_wvel_max              =   1.0094385367304E-03
(PID.TID 0000.0001) %MON advcfl_W_hf_max              =   1.0094385367304E-03
(PID.TID 0000.0001) %MON pe_b_mean                    =  -8.3202747077073E-01
(PID.TID 0000.0001) %MON ke_max                       =   7.2111927743739E-06
(PID.TID 0000.0001) %MON ke_mean                      =   3.0324536683314E-08
(PID.TID 0000.0001) %MON ke_vol                       =   4.2725228357916E+12
(PID.TID 0000.0001) // =======================================================
(PID.TID 0000.0001) // End MONITOR dynamic field statistics
(PID.TID 0000.0001) // =======================================================
(PID.TID 0000.0001) // =======================================================
(PID.TID 0000.0001) // Begin OBCS MONITOR field statistics
(PID.TID 0000.0001) // =======================================================
(PID.TID 0000.0001) %MON obc_N_vVel_max               =   1.4735469296850E-05
(PID.TID 0000.0001) %MON obc_N_vVel_min               =   1.4735469296849E-05
(PID.TID 0000.0001) %MON obc_N_vVel_mean              =   1.4735469296849E-05
(PID.TID 0000.0001) %MON obc_N_vVel_sd                =   2.0400373665469E-12
(PID.TID 0000.0001) %MON obc_N_vVel_Int               =   9.7254097359205E+02
(PID.TID 0000.0001) // =======================================================
(PID.TID 0000.0001) // End OBCS MONITOR field statistics
(PID.TID 0000.0001) // =======================================================
 cg2d: Sum(rhs),rhsMax =   4.52206172279653E+00  2.99889899484165E+02
(PID.TID 0000.0001)      cg2d_init_res =   6.23009548357339E-06
(PID.TID 0000.0001)      cg2d_iters(min,last) =      -1      77
(PID.TID 0000.0001)      cg2d_last_res =   9.50185798020540E-12
(PID.TID 0000.0001) // =======================================================
(PID.TID 0000.0001) // Begin MONITOR dynamic field statistics
(PID.TID 0000.0001) // =======================================================
(PID.TID 0000.0001) %MON time_tsnumber                =                   467
(PID.TID 0000.0001) %MON time_secondsf                =   4.6700000000000E+04
(PID.TID 0000.0001) %MON dynstat_eta_max              =   5.7921894860452E+00
(PID.TID 0000.0001) %MON dynstat_eta_min              =  -1.4199261994687E+01
(PID.TID 0000.0001) %MON dynstat_eta_mean             =  -2.5113345102049E+00
(PID.TID 0000.0001) %MON dynstat_eta_sd               =   4.9524589315651E+00
(PID.TID 0000.0001) %MON dynstat_eta_del2             =   2.0714124583151E-01
(PID.TID 0000.0001) %MON dynstat_uvel_max             =   1.6587260744050E-03
(PID.TID 0000.0001) %MON dynstat_uvel_min             =  -4.4207896449215E-03
(PID.TID 0000.0001) %MON dynstat_uvel_mean            =  -1.1825177699935E-07
(PID.TID 0000.0001) %MON dynstat_uvel_sd              =   1.8486412336026E-04
(PID.TID 0000.0001) %MON dynstat_uvel_del2            =   3.2329175049172E-07
(PID.TID 0000.0001) %MON dynstat_vvel_max             =   4.3174578246798E-03
(PID.TID 0000.0001) %MON dynstat_vvel_min             =  -2.3707697737159E-03
(PID.TID 0000.0001) %MON dynstat_vvel_mean            =   1.4965332971276E-05
(PID.TID 0000.0001) %MON dynstat_vvel_sd              =   1.6430313943851E-04
(PID.TID 0000.0001) %MON dynstat_vvel_del2            =   3.7181604524016E-07
(PID.TID 0000.0001) %MON dynstat_wvel_max             =   1.5062459127091E-04
(PID.TID 0000.0001) %MON dynstat_wvel_min             =  -2.1041591763731E-04
(PID.TID 0000.0001) %MON dynstat_wvel_mean            =   6.5735338707504E-09
(PID.TID 0000.0001) %MON dynstat_wvel_sd              =   2.6545638774090E-05
(PID.TID 0000.0001) %MON dynstat_wvel_del2            =   1.1637594644642E-07
(PID.TID 0000.0001) %MON dynstat_theta_max            =   1.2000000000000E+00
(PID.TID 0000.0001) %MON dynstat_theta_min            =  -1.0000000000000E+00
(PID.TID 0000.0001) %MON dynstat_theta_mean           =   5.6903312286864E-01
(PID.TID 0000.0001) %MON dynstat_theta_sd             =   8.6854727084451E-01
(PID.TID 0000.0001) %MON dynstat_theta_del2           =   1.0327688289060E-06
(PID.TID 0000.0001) %MON dynstat_salt_max             =   3.4700000000000E+01
(PID.TID 0000.0001) %MON dynstat_salt_min             =   3.4000000000000E+01
(PID.TID 0000.0001) %MON dynstat_salt_mean            =   3.4499227404275E+01
(PID.TID 0000.0001) %MON dynstat_salt_sd              =   2.7635307038204E-01
(PID.TID 0000.0001) %MON dynstat_salt_del2            =   3.7318264497672E-07
(PID.TID 0000.0001) %MON advcfl_uvel_max              =   4.4207896449215E-04
(PID.TID 0000.0001) %MON advcfl_vvel_max              =   4.3174578246798E-04
(PID.TID 0000.0001) %MON advcfl_wvel_max              =   1.0520795881866E-03
(PID.TID 0000.0001) %MON advcfl_W_hf_max              =   1.0520795881866E-03
(PID.TID 0000.0001) %MON pe_b_mean                    =  -8.3203139678617E-01
(PID.TID 0000.0001) %MON ke_max                       =   7.1867893634110E-06
(PID.TID 0000.0001) %MON ke_mean                      =   3.0356556629949E-08
(PID.TID 0000.0001) %MON ke_vol                       =   4.2725227543833E+12
(PID.TID 0000.0001) // =======================================================
(PID.TID 0000.0001) // End MONITOR dynamic field statistics
(PID.TID 0000.0001) // =======================================================
(PID.TID 0000.0001) // =======================================================
(PID.TID 0000.0001) // Begin OBCS MONITOR field statistics
(PID.TID 0000.0001) // =======================================================
(PID.TID 0000.0001) %MON obc_N_vVel_max               =   1.4733255683478E-05
(PID.TID 0000.0001) %MON obc_N_vVel_min               =   1.4733255683478E-05
(PID.TID 0000.0001) %MON obc_N_vVel_mean              =   1.4733255683478E-05
(PID.TID 0000.0001) %MON obc_N_vVel_sd                =  -4.0325054861960E-24
(PID.TID 0000.0001) %MON obc_N_vVel_Int               =   9.7239487510956E+02
(PID.TID 0000.0001) // =======================================================
(PID.TID 0000.0001) // End OBCS MONITOR field statistics
(PID.TID 0000.0001) // =======================================================
 cg2d: Sum(rhs),rhsMax =   4.52208523234558E+00  2.99889975612626E+02
(PID.TID 0000.0001)      cg2d_init_res =   6.23079196533235E-06
(PID.TID 0000.0001)      cg2d_iters(min,last) =      -1      77
(PID.TID 0000.0001)      cg2d_last_res =   9.51365153946275E-12
(PID.TID 0000.0001) // =======================================================
(PID.TID 0000.0001) // Begin MONITOR dynamic field statistics
(PID.TID 0000.0001) // =======================================================
(PID.TID 0000.0001) %MON time_tsnumber                =                   468
(PID.TID 0000.0001) %MON time_secondsf                =   4.6800000000000E+04
(PID.TID 0000.0001) %MON dynstat_eta_max              =   5.7921561928191E+00
(PID.TID 0000.0001) %MON dynstat_eta_min              =  -1.4199285200629E+01
(PID.TID 0000.0001) %MON dynstat_eta_mean             =  -2.5113482037895E+00
(PID.TID 0000.0001) %MON dynstat_eta_sd               =   4.9524634689337E+00
(PID.TID 0000.0001) %MON dynstat_eta_del2             =   2.0714125404439E-01
(PID.TID 0000.0001) %MON dynstat_uvel_max             =   1.6518139707157E-03
(PID.TID 0000.0001) %MON dynstat_uvel_min             =  -4.4352011742248E-03
(PID.TID 0000.0001) %MON dynstat_uvel_mean            =  -1.1827355836873E-07
(PID.TID 0000.0001) %MON dynstat_uvel_sd              =   1.8531329130535E-04
(PID.TID 0000.0001) %MON dynstat_uvel_del2            =   3.2368927490277E-07
(PID.TID 0000.0001) %MON dynstat_vvel_max             =   4.3140594670765E-03
(PID.TID 0000.0001) %MON dynstat_vvel_min             =  -2.3709016767821E-03
(PID.TID 0000.0001) %MON dynstat_vvel_mean            =   1.4962737092214E-05
(PID.TID 0000.0001) %MON dynstat_vvel_sd              =   1.6392813716326E-04
(PID.TID 0000.0001) %MON dynstat_vvel_del2            =   3.7170253548341E-07
(PID.TID 0000.0001) %MON dynstat_wvel_max             =   1.5333640657446E-04
(PID.TID 0000.0001) %MON dynstat_wvel_min             =  -2.1803093029662E-04
(PID.TID 0000.0001) %MON dynstat_wvel_mean            =   6.5705053696258E-09
(PID.TID 0000.0001) %MON dynstat_wvel_sd              =   2.6389168549527E-05
(PID.TID 0000.0001) %MON dynstat_wvel_del2            =   1.1643097947404E-07
(PID.TID 0000.0001) %MON dynstat_theta_max            =   1.2000000000000E+00
(PID.TID 0000.0001) %MON dynstat_theta_min            =  -1.0000000000000E+00
(PID.TID 0000.0001) %MON dynstat_theta_mean           =   5.6903280891782E-01
(PID.TID 0000.0001) %MON dynstat_theta_sd             =   8.6854710275361E-01
(PID.TID 0000.0001) %MON dynstat_theta_del2           =   1.0334398906629E-06
(PID.TID 0000.0001) %MON dynstat_salt_max             =   3.4700000000000E+01
(PID.TID 0000.0001) %MON dynstat_salt_min             =   3.4000000000000E+01
(PID.TID 0000.0001) %MON dynstat_salt_mean            =   3.4499227278567E+01
(PID.TID 0000.0001) %MON dynstat_salt_sd              =   2.7635300831181E-01
(PID.TID 0000.0001) %MON dynstat_salt_del2            =   3.7358389359797E-07
(PID.TID 0000.0001) %MON advcfl_uvel_max              =   4.4352011742248E-04
(PID.TID 0000.0001) %MON advcfl_vvel_max              =   4.3140594670765E-04
(PID.TID 0000.0001) %MON advcfl_wvel_max              =   1.0901546514831E-03
(PID.TID 0000.0001) %MON advcfl_W_hf_max              =   1.0901546514831E-03
(PID.TID 0000.0001) %MON pe_b_mean                    =  -8.3203532098265E-01
(PID.TID 0000.0001) %MON ke_max                       =   7.1622926095071E-06
(PID.TID 0000.0001) %MON ke_mean                      =   3.0376468577852E-08
(PID.TID 0000.0001) %MON ke_vol                       =   4.2725226730094E+12
(PID.TID 0000.0001) // =======================================================
(PID.TID 0000.0001) // End MONITOR dynamic field statistics
(PID.TID 0000.0001) // =======================================================
(PID.TID 0000.0001) // =======================================================
(PID.TID 0000.0001) // Begin OBCS MONITOR field statistics
(PID.TID 0000.0001) // =======================================================
(PID.TID 0000.0001) %MON obc_N_vVel_max               =   1.4731068199104E-05
(PID.TID 0000.0001) %MON obc_N_vVel_min               =   1.4731068199104E-05
(PID.TID 0000.0001) %MON obc_N_vVel_mean              =   1.4731068199104E-05
(PID.TID 0000.0001) %MON obc_N_vVel_sd                =   3.5040636720220E-12
(PID.TID 0000.0001) %MON obc_N_vVel_Int               =   9.7225050114084E+02
(PID.TID 0000.0001) // =======================================================
(PID.TID 0000.0001) // End OBCS MONITOR field statistics
(PID.TID 0000.0001) // =======================================================
 cg2d: Sum(rhs),rhsMax =   4.52210873073669E+00  2.99890051808644E+02
(PID.TID 0000.0001)      cg2d_init_res =   6.23160104215586E-06
(PID.TID 0000.0001)      cg2d_iters(min,last) =      -1      77
(PID.TID 0000.0001)      cg2d_last_res =   9.52085728088527E-12
(PID.TID 0000.0001) // =======================================================
(PID.TID 0000.0001) // Begin MONITOR dynamic field statistics
(PID.TID 0000.0001) // =======================================================
(PID.TID 0000.0001) %MON time_tsnumber                =                   469
(PID.TID 0000.0001) %MON time_secondsf                =   4.6900000000000E+04
(PID.TID 0000.0001) %MON dynstat_eta_max              =   5.7921229017169E+00
(PID.TID 0000.0001) %MON dynstat_eta_min              =  -1.4199308394895E+01
(PID.TID 0000.0001) %MON dynstat_eta_mean             =  -2.5113618917499E+00
(PID.TID 0000.0001) %MON dynstat_eta_sd               =   4.9524680048949E+00
(PID.TID 0000.0001) %MON dynstat_eta_del2             =   2.0714126228321E-01
(PID.TID 0000.0001) %MON dynstat_uvel_max             =   1.6448567200961E-03
(PID.TID 0000.0001) %MON dynstat_uvel_min             =  -4.4496416428847E-03
(PID.TID 0000.0001) %MON dynstat_uvel_mean            =  -1.1829952876577E-07
(PID.TID 0000.0001) %MON dynstat_uvel_sd              =   1.8576344352025E-04
(PID.TID 0000.0001) %MON dynstat_uvel_del2            =   3.2408974622185E-07
(PID.TID 0000.0001) %MON dynstat_vvel_max             =   4.3106035634102E-03
(PID.TID 0000.0001) %MON dynstat_vvel_min             =  -2.3709974687076E-03
(PID.TID 0000.0001) %MON dynstat_vvel_mean            =   1.4960309006018E-05
(PID.TID 0000.0001) %MON dynstat_vvel_sd              =   1.6348143607310E-04
(PID.TID 0000.0001) %MON dynstat_vvel_del2            =   3.7150643325771E-07
(PID.TID 0000.0001) %MON dynstat_wvel_max             =   1.5469447701611E-04
(PID.TID 0000.0001) %MON dynstat_wvel_min             =  -2.2465722457281E-04
(PID.TID 0000.0001) %MON dynstat_wvel_mean            =   6.5683074491168E-09
(PID.TID 0000.0001) %MON dynstat_wvel_sd              =   2.6192335495683E-05
(PID.TID 0000.0001) %MON dynstat_wvel_del2            =   1.1641000801670E-07
(PID.TID 0000.0001) %MON dynstat_theta_max            =   1.2000000000000E+00
(PID.TID 0000.0001) %MON dynstat_theta_min            =  -1.0000000000000E+00
(PID.TID 0000.0001) %MON dynstat_theta_mean           =   5.6903249480582E-01
(PID.TID 0000.0001) %MON dynstat_theta_sd             =   8.6854693427516E-01
(PID.TID 0000.0001) %MON dynstat_theta_del2           =   1.0344721354845E-06
(PID.TID 0000.0001) %MON dynstat_salt_max             =   3.4700000000000E+01
(PID.TID 0000.0001) %MON dynstat_salt_min             =   3.4000000000000E+01
(PID.TID 0000.0001) %MON dynstat_salt_mean            =   3.4499227152774E+01
(PID.TID 0000.0001) %MON dynstat_salt_sd              =   2.7635294609813E-01
(PID.TID 0000.0001) %MON dynstat_salt_del2            =   3.7408669798843E-07
(PID.TID 0000.0001) %MON advcfl_uvel_max              =   4.4496416428847E-04
(PID.TID 0000.0001) %MON advcfl_vvel_max              =   4.3106035634102E-04
(PID.TID 0000.0001) %MON advcfl_wvel_max              =   1.1232861228641E-03
(PID.TID 0000.0001) %MON advcfl_W_hf_max              =   1.1232861228641E-03
(PID.TID 0000.0001) %MON pe_b_mean                    =  -8.3203924340877E-01
(PID.TID 0000.0001) %MON ke_max                       =   7.1377045212679E-06
(PID.TID 0000.0001) %MON ke_mean                      =   3.0385177655713E-08
(PID.TID 0000.0001) %MON ke_vol                       =   4.2725225916695E+12
(PID.TID 0000.0001) // =======================================================
(PID.TID 0000.0001) // End MONITOR dynamic field statistics
(PID.TID 0000.0001) // =======================================================
(PID.TID 0000.0001) // =======================================================
(PID.TID 0000.0001) // Begin OBCS MONITOR field statistics
(PID.TID 0000.0001) // =======================================================
(PID.TID 0000.0001) %MON obc_N_vVel_max               =   1.4728977340945E-05
(PID.TID 0000.0001) %MON obc_N_vVel_min               =   1.4728977340944E-05
(PID.TID 0000.0001) %MON obc_N_vVel_mean              =   1.4728977340945E-05
(PID.TID 0000.0001) %MON obc_N_vVel_sd                =  -8.0908603665343E-24
(PID.TID 0000.0001) %MON obc_N_vVel_Int               =   9.7211250450236E+02
(PID.TID 0000.0001) // =======================================================
(PID.TID 0000.0001) // End OBCS MONITOR field statistics
(PID.TID 0000.0001) // =======================================================
 cg2d: Sum(rhs),rhsMax =   4.52213221828278E+00  2.99890128073600E+02
(PID.TID 0000.0001)      cg2d_init_res =   6.23229166292813E-06
(PID.TID 0000.0001)      cg2d_iters(min,last) =      -1      77
(PID.TID 0000.0001)      cg2d_last_res =   9.52487697676072E-12
(PID.TID 0000.0001) // =======================================================
(PID.TID 0000.0001) // Begin MONITOR dynamic field statistics
(PID.TID 0000.0001) // =======================================================
(PID.TID 0000.0001) %MON time_tsnumber                =                   470
(PID.TID 0000.0001) %MON time_secondsf                =   4.7000000000000E+04
(PID.TID 0000.0001) %MON dynstat_eta_max              =   5.7920896126088E+00
(PID.TID 0000.0001) %MON dynstat_eta_min              =  -1.4199331578039E+01
(PID.TID 0000.0001) %MON dynstat_eta_mean             =  -2.5113755742714E+00
(PID.TID 0000.0001) %MON dynstat_eta_sd               =   4.9524725395657E+00
(PID.TID 0000.0001) %MON dynstat_eta_del2             =   2.0714127054795E-01
(PID.TID 0000.0001) %MON dynstat_uvel_max             =   1.6378546831848E-03
(PID.TID 0000.0001) %MON dynstat_uvel_min             =  -4.4641111901251E-03
(PID.TID 0000.0001) %MON dynstat_uvel_mean            =  -1.1832933367938E-07
(PID.TID 0000.0001) %MON dynstat_uvel_sd              =   1.8621423720206E-04
(PID.TID 0000.0001) %MON dynstat_uvel_del2            =   3.2449289472435E-07
(PID.TID 0000.0001) %MON dynstat_vvel_max             =   4.3070908624632E-03
(PID.TID 0000.0001) %MON dynstat_vvel_min             =  -2.3710572083342E-03
(PID.TID 0000.0001) %MON dynstat_vvel_mean            =   1.4958124495163E-05
(PID.TID 0000.0001) %MON dynstat_vvel_sd              =   1.6297017739010E-04
(PID.TID 0000.0001) %MON dynstat_vvel_del2            =   3.7121900976774E-07
(PID.TID 0000.0001) %MON dynstat_wvel_max             =   1.5465799728898E-04
(PID.TID 0000.0001) %MON dynstat_wvel_min             =  -2.3022362177465E-04
(PID.TID 0000.0001) %MON dynstat_wvel_mean            =   6.5670026548315E-09
(PID.TID 0000.0001) %MON dynstat_wvel_sd              =   2.5955274021441E-05
(PID.TID 0000.0001) %MON dynstat_wvel_del2            =   1.1629770714461E-07
(PID.TID 0000.0001) %MON dynstat_theta_max            =   1.2000000000000E+00
(PID.TID 0000.0001) %MON dynstat_theta_min            =  -1.0000000000000E+00
(PID.TID 0000.0001) %MON dynstat_theta_mean           =   5.6903218053141E-01
(PID.TID 0000.0001) %MON dynstat_theta_sd             =   8.6854676542142E-01
(PID.TID 0000.0001) %MON dynstat_theta_del2           =   1.0358729401881E-06
(PID.TID 0000.0001) %MON dynstat_salt_max             =   3.4700000000000E+01
(PID.TID 0000.0001) %MON dynstat_salt_min             =   3.4000000000000E+01
(PID.TID 0000.0001) %MON dynstat_salt_mean            =   3.4499227026898E+01
(PID.TID 0000.0001) %MON dynstat_salt_sd              =   2.7635288374480E-01
(PID.TID 0000.0001) %MON dynstat_salt_del2            =   3.7469306052239E-07
(PID.TID 0000.0001) %MON advcfl_uvel_max              =   4.4641111901251E-04
(PID.TID 0000.0001) %MON advcfl_vvel_max              =   4.3070908624632E-04
(PID.TID 0000.0001) %MON advcfl_wvel_max              =   1.1511181088732E-03
(PID.TID 0000.0001) %MON advcfl_W_hf_max              =   1.1511181088732E-03
(PID.TID 0000.0001) %MON pe_b_mean                    =  -8.3204316413220E-01
(PID.TID 0000.0001) %MON ke_max                       =   7.1130270801439E-06
(PID.TID 0000.0001) %MON ke_mean                      =   3.0383883474510E-08
(PID.TID 0000.0001) %MON ke_vol                       =   4.2725225103630E+12
(PID.TID 0000.0001) // =======================================================
(PID.TID 0000.0001) // End MONITOR dynamic field statistics
(PID.TID 0000.0001) // =======================================================
(PID.TID 0000.0001) // =======================================================
(PID.TID 0000.0001) // Begin OBCS MONITOR field statistics
(PID.TID 0000.0001) // =======================================================
(PID.TID 0000.0001) %MON obc_N_vVel_max               =   1.4727049263783E-05
(PID.TID 0000.0001) %MON obc_N_vVel_min               =   1.4727049263783E-05
(PID.TID 0000.0001) %MON obc_N_vVel_mean              =   1.4727049263783E-05
(PID.TID 0000.0001) %MON obc_N_vVel_sd                =  -5.9712100468672E-24
(PID.TID 0000.0001) %MON obc_N_vVel_Int               =   9.7198525140968E+02
(PID.TID 0000.0001) // =======================================================
(PID.TID 0000.0001) // End OBCS MONITOR field statistics
(PID.TID 0000.0001) // =======================================================
 cg2d: Sum(rhs),rhsMax =   4.52215569544076E+00  2.99890204407520E+02
(PID.TID 0000.0001)      cg2d_init_res =   6.23261880705549E-06
(PID.TID 0000.0001)      cg2d_iters(min,last) =      -1      77
(PID.TID 0000.0001)      cg2d_last_res =   9.53009070900191E-12
(PID.TID 0000.0001) // =======================================================
(PID.TID 0000.0001) // Begin MONITOR dynamic field statistics
(PID.TID 0000.0001) // =======================================================
(PID.TID 0000.0001) %MON time_tsnumber                =                   471
(PID.TID 0000.0001) %MON time_secondsf                =   4.7100000000000E+04
(PID.TID 0000.0001) %MON dynstat_eta_max              =   5.7920563253402E+00
(PID.TID 0000.0001) %MON dynstat_eta_min              =  -1.4199354750717E+01
(PID.TID 0000.0001) %MON dynstat_eta_mean             =  -2.5113892516081E+00
(PID.TID 0000.0001) %MON dynstat_eta_sd               =   4.9524770730791E+00
(PID.TID 0000.0001) %MON dynstat_eta_del2             =   2.0714127883868E-01
(PID.TID 0000.0001) %MON dynstat_uvel_max             =   1.6308082212430E-03
(PID.TID 0000.0001) %MON dynstat_uvel_min             =  -4.4786099541199E-03
(PID.TID 0000.0001) %MON dynstat_uvel_mean            =  -1.1836247781299E-07
(PID.TID 0000.0001) %MON dynstat_uvel_sd              =   1.8666531252607E-04
(PID.TID 0000.0001) %MON dynstat_uvel_del2            =   3.2489843027901E-07
(PID.TID 0000.0001) %MON dynstat_vvel_max             =   4.3035221049470E-03
(PID.TID 0000.0001) %MON dynstat_vvel_min             =  -2.3710809654958E-03
(PID.TID 0000.0001) %MON dynstat_vvel_mean            =   1.4956249927933E-05
(PID.TID 0000.0001) %MON dynstat_vvel_sd              =   1.6240328766266E-04
(PID.TID 0000.0001) %MON dynstat_vvel_del2            =   3.7083423696715E-07
(PID.TID 0000.0001) %MON dynstat_wvel_max             =   1.5319886308014E-04
(PID.TID 0000.0001) %MON dynstat_wvel_min             =  -2.3466408918560E-04
(PID.TID 0000.0001) %MON dynstat_wvel_mean            =   6.5666228498729E-09
(PID.TID 0000.0001) %MON dynstat_wvel_sd              =   2.5679116419158E-05
(PID.TID 0000.0001) %MON dynstat_wvel_del2            =   1.1608081871145E-07
(PID.TID 0000.0001) %MON dynstat_theta_max            =   1.2000000000000E+00
(PID.TID 0000.0001) %MON dynstat_theta_min            =  -1.0000000000000E+00
(PID.TID 0000.0001) %MON dynstat_theta_mean           =   5.6903186609382E-01
(PID.TID 0000.0001) %MON dynstat_theta_sd             =   8.6854659624282E-01
(PID.TID 0000.0001) %MON dynstat_theta_del2           =   1.0376394966055E-06
(PID.TID 0000.0001) %MON dynstat_salt_max             =   3.4700000000000E+01
(PID.TID 0000.0001) %MON dynstat_salt_min             =   3.4000000000000E+01
(PID.TID 0000.0001) %MON dynstat_salt_mean            =   3.4499226900937E+01
(PID.TID 0000.0001) %MON dynstat_salt_sd              =   2.7635282126797E-01
(PID.TID 0000.0001) %MON dynstat_salt_del2            =   3.7540201612617E-07
(PID.TID 0000.0001) %MON advcfl_uvel_max              =   4.4786099541199E-04
(PID.TID 0000.0001) %MON advcfl_vvel_max              =   4.3035221049470E-04
(PID.TID 0000.0001) %MON advcfl_wvel_max              =   1.1733204459280E-03
(PID.TID 0000.0001) %MON advcfl_W_hf_max              =   1.1733204459280E-03
(PID.TID 0000.0001) %MON pe_b_mean                    =  -8.3204708323734E-01
(PID.TID 0000.0001) %MON ke_max                       =   7.0882622343508E-06
(PID.TID 0000.0001) %MON ke_mean                      =   3.0374070573438E-08
(PID.TID 0000.0001) %MON ke_vol                       =   4.2725224290888E+12
(PID.TID 0000.0001) // =======================================================
(PID.TID 0000.0001) // End MONITOR dynamic field statistics
(PID.TID 0000.0001) // =======================================================
(PID.TID 0000.0001) // =======================================================
(PID.TID 0000.0001) // Begin OBCS MONITOR field statistics
(PID.TID 0000.0001) // =======================================================
(PID.TID 0000.0001) %MON obc_N_vVel_max               =   1.4725343675806E-05
(PID.TID 0000.0001) %MON obc_N_vVel_min               =   1.4725343675806E-05
(PID.TID 0000.0001) %MON obc_N_vVel_mean              =   1.4725343675806E-05
(PID.TID 0000.0001) %MON obc_N_vVel_sd                =  -2.1971985020940E-24
(PID.TID 0000.0001) %MON obc_N_vVel_Int               =   9.7187268260322E+02
(PID.TID 0000.0001) // =======================================================
(PID.TID 0000.0001) // End OBCS MONITOR field statistics
(PID.TID 0000.0001) // =======================================================
 cg2d: Sum(rhs),rhsMax =   4.52217916278386E+00  2.99890280809043E+02
(PID.TID 0000.0001)      cg2d_init_res =   6.23233795780737E-06
(PID.TID 0000.0001)      cg2d_iters(min,last) =      -1      77
(PID.TID 0000.0001)      cg2d_last_res =   9.53982342540647E-12
(PID.TID 0000.0001) // =======================================================
(PID.TID 0000.0001) // Begin MONITOR dynamic field statistics
(PID.TID 0000.0001) // =======================================================
(PID.TID 0000.0001) %MON time_tsnumber                =                   472
(PID.TID 0000.0001) %MON time_secondsf                =   4.7200000000000E+04
(PID.TID 0000.0001) %MON dynstat_eta_max              =   5.7920230397301E+00
(PID.TID 0000.0001) %MON dynstat_eta_min              =  -1.4199377913664E+01
(PID.TID 0000.0001) %MON dynstat_eta_mean             =  -2.5114029240668E+00
(PID.TID 0000.0001) %MON dynstat_eta_sd               =   4.9524816055764E+00
(PID.TID 0000.0001) %MON dynstat_eta_del2             =   2.0714128715532E-01
(PID.TID 0000.0001) %MON dynstat_uvel_max             =   1.6237176962498E-03
(PID.TID 0000.0001) %MON dynstat_uvel_min             =  -4.4931380719468E-03
(PID.TID 0000.0001) %MON dynstat_uvel_mean            =  -1.1839836715359E-07
(PID.TID 0000.0001) %MON dynstat_uvel_sd              =   1.8711629745329E-04
(PID.TID 0000.0001) %MON dynstat_uvel_del2            =   3.2530604553715E-07
(PID.TID 0000.0001) %MON dynstat_vvel_max             =   4.2998980185525E-03
(PID.TID 0000.0001) %MON dynstat_vvel_min             =  -2.3710688226330E-03
(PID.TID 0000.0001) %MON dynstat_vvel_mean            =   1.4954740212879E-05
(PID.TID 0000.0001) %MON dynstat_vvel_sd              =   1.6179142137417E-04
(PID.TID 0000.0001) %MON dynstat_vvel_del2            =   3.7034956857944E-07
(PID.TID 0000.0001) %MON dynstat_wvel_max             =   1.5030231342815E-04
(PID.TID 0000.0001) %MON dynstat_wvel_min             =  -2.3791852633029E-04
(PID.TID 0000.0001) %MON dynstat_wvel_mean            =   6.5671689117841E-09
(PID.TID 0000.0001) %MON dynstat_wvel_sd              =   2.5366118006487E-05
(PID.TID 0000.0001) %MON dynstat_wvel_del2            =   1.1574916817293E-07
(PID.TID 0000.0001) %MON dynstat_theta_max            =   1.2000000000000E+00
(PID.TID 0000.0001) %MON dynstat_theta_min            =  -1.0000000000000E+00
(PID.TID 0000.0001) %MON dynstat_theta_mean           =   5.6903155149118E-01
(PID.TID 0000.0001) %MON dynstat_theta_sd             =   8.6854642678011E-01
(PID.TID 0000.0001) %MON dynstat_theta_del2           =   1.0397576885676E-06
(PID.TID 0000.0001) %MON dynstat_salt_max             =   3.4700000000000E+01
(PID.TID 0000.0001) %MON dynstat_salt_min             =   3.4000000000000E+01
(PID.TID 0000.0001) %MON dynstat_salt_mean            =   3.4499226774892E+01
(PID.TID 0000.0001) %MON dynstat_salt_sd              =   2.7635275868044E-01
(PID.TID 0000.0001) %MON dynstat_salt_del2            =   3.7620958532178E-07
(PID.TID 0000.0001) %MON advcfl_uvel_max              =   4.4931380719468E-04
(PID.TID 0000.0001) %MON advcfl_vvel_max              =   4.2998980185525E-04
(PID.TID 0000.0001) %MON advcfl_wvel_max              =   1.1895926316514E-03
(PID.TID 0000.0001) %MON advcfl_W_hf_max              =   1.1895926316514E-03
(PID.TID 0000.0001) %MON pe_b_mean                    =  -8.3205100081957E-01
(PID.TID 0000.0001) %MON ke_max                       =   7.0634118952336E-06
(PID.TID 0000.0001) %MON ke_mean                      =   3.0357490101503E-08
(PID.TID 0000.0001) %MON ke_vol                       =   4.2725223478454E+12
(PID.TID 0000.0001) // =======================================================
(PID.TID 0000.0001) // End MONITOR dynamic field statistics
(PID.TID 0000.0001) // =======================================================
(PID.TID 0000.0001) // =======================================================
(PID.TID 0000.0001) // Begin OBCS MONITOR field statistics
(PID.TID 0000.0001) // =======================================================
(PID.TID 0000.0001) %MON obc_N_vVel_max               =   1.4723911997336E-05
(PID.TID 0000.0001) %MON obc_N_vVel_min               =   1.4723911997336E-05
(PID.TID 0000.0001) %MON obc_N_vVel_mean              =   1.4723911997336E-05
(PID.TID 0000.0001) %MON obc_N_vVel_sd                =  -1.0985992510470E-23
(PID.TID 0000.0001) %MON obc_N_vVel_Int               =   9.7177819182419E+02
(PID.TID 0000.0001) // =======================================================
(PID.TID 0000.0001) // End OBCS MONITOR field statistics
(PID.TID 0000.0001) // =======================================================
 cg2d: Sum(rhs),rhsMax =   4.52220262098758E+00  2.99890357275459E+02
(PID.TID 0000.0001)      cg2d_init_res =   6.23125000680565E-06
(PID.TID 0000.0001)      cg2d_iters(min,last) =      -1      77
(PID.TID 0000.0001)      cg2d_last_res =   9.55300780092063E-12
(PID.TID 0000.0001) // =======================================================
(PID.TID 0000.0001) // Begin MONITOR dynamic field statistics
(PID.TID 0000.0001) // =======================================================
(PID.TID 0000.0001) %MON time_tsnumber                =                   473
(PID.TID 0000.0001) %MON time_secondsf                =   4.7300000000000E+04
(PID.TID 0000.0001) %MON dynstat_eta_max              =   5.7919897555831E+00
(PID.TID 0000.0001) %MON dynstat_eta_min              =  -1.4199401067669E+01
(PID.TID 0000.0001) %MON dynstat_eta_mean             =  -2.5114165920000E+00
(PID.TID 0000.0001) %MON dynstat_eta_sd               =   4.9524861372029E+00
(PID.TID 0000.0001) %MON dynstat_eta_del2             =   2.0714129549763E-01
(PID.TID 0000.0001) %MON dynstat_uvel_max             =   1.6165834707770E-03
(PID.TID 0000.0001) %MON dynstat_uvel_min             =  -4.5076956792629E-03
(PID.TID 0000.0001) %MON dynstat_uvel_mean            =  -1.1843634345087E-07
(PID.TID 0000.0001) %MON dynstat_uvel_sd              =   1.8756681283325E-04
(PID.TID 0000.0001) %MON dynstat_uvel_del2            =   3.2571542022492E-07
(PID.TID 0000.0001) %MON dynstat_vvel_max             =   4.2962193161591E-03
(PID.TID 0000.0001) %MON dynstat_vvel_min             =  -2.3710208761418E-03
(PID.TID 0000.0001) %MON dynstat_vvel_mean            =   1.4953637164229E-05
(PID.TID 0000.0001) %MON dynstat_vvel_sd              =   1.6114684873642E-04
(PID.TID 0000.0001) %MON dynstat_vvel_del2            =   3.6976656858320E-07
(PID.TID 0000.0001) %MON dynstat_wvel_max             =   1.4596744440146E-04
(PID.TID 0000.0001) %MON dynstat_wvel_min             =  -2.3993354001788E-04
(PID.TID 0000.0001) %MON dynstat_wvel_mean            =   6.5686102596043E-09
(PID.TID 0000.0001) %MON dynstat_wvel_sd              =   2.5019769565308E-05
(PID.TID 0000.0001) %MON dynstat_wvel_del2            =   1.1529652210512E-07
(PID.TID 0000.0001) %MON dynstat_theta_max            =   1.2000000000000E+00
(PID.TID 0000.0001) %MON dynstat_theta_min            =  -1.0000000000000E+00
(PID.TID 0000.0001) %MON dynstat_theta_mean           =   5.6903123672111E-01
(PID.TID 0000.0001) %MON dynstat_theta_sd             =   8.6854625701673E-01
(PID.TID 0000.0001) %MON dynstat_theta_del2           =   1.0422018294505E-06
(PID.TID 0000.0001) %MON dynstat_salt_max             =   3.4700000000000E+01
(PID.TID 0000.0001) %MON dynstat_salt_min             =   3.4000000000000E+01
(PID.TID 0000.0001) %MON dynstat_salt_mean            =   3.4499226648760E+01
(PID.TID 0000.0001) %MON dynstat_salt_sd              =   2.7635269597723E-01
(PID.TID 0000.0001) %MON dynstat_salt_del2            =   3.7710854366404E-07
(PID.TID 0000.0001) %MON advcfl_uvel_max              =   4.5076956792629E-04
(PID.TID 0000.0001) %MON advcfl_vvel_max              =   4.2962193161591E-04
(PID.TID 0000.0001) %MON advcfl_wvel_max              =   1.1996677000894E-03
(PID.TID 0000.0001) %MON advcfl_W_hf_max              =   1.1996677000894E-03
(PID.TID 0000.0001) %MON pe_b_mean                    =  -8.3205491698352E-01
(PID.TID 0000.0001) %MON ke_max                       =   7.0384779342693E-06
(PID.TID 0000.0001) %MON ke_mean                      =   3.0336132459148E-08
(PID.TID 0000.0001) %MON ke_vol                       =   4.2725222666310E+12
(PID.TID 0000.0001) // =======================================================
(PID.TID 0000.0001) // End MONITOR dynamic field statistics
(PID.TID 0000.0001) // =======================================================
(PID.TID 0000.0001) // =======================================================
(PID.TID 0000.0001) // Begin OBCS MONITOR field statistics
(PID.TID 0000.0001) // =======================================================
(PID.TID 0000.0001) %MON obc_N_vVel_max               =   1.4722795797670E-05
(PID.TID 0000.0001) %MON obc_N_vVel_min               =   1.4722795797670E-05
(PID.TID 0000.0001) %MON obc_N_vVel_mean              =   1.4722795797670E-05
(PID.TID 0000.0001) %MON obc_N_vVel_sd                =   3.4030175691204E-12
(PID.TID 0000.0001) %MON obc_N_vVel_Int               =   9.7170452264620E+02
(PID.TID 0000.0001) // =======================================================
(PID.TID 0000.0001) // End OBCS MONITOR field statistics
(PID.TID 0000.0001) // =======================================================
 cg2d: Sum(rhs),rhsMax =   4.52222607080538E+00  2.99890433802738E+02
(PID.TID 0000.0001)      cg2d_init_res =   6.22920255005845E-06
(PID.TID 0000.0001)      cg2d_iters(min,last) =      -1      77
(PID.TID 0000.0001)      cg2d_last_res =   9.56512819750355E-12
(PID.TID 0000.0001) // =======================================================
(PID.TID 0000.0001) // Begin MONITOR dynamic field statistics
(PID.TID 0000.0001) // =======================================================
(PID.TID 0000.0001) %MON time_tsnumber                =                   474
(PID.TID 0000.0001) %MON time_secondsf                =   4.7400000000000E+04
(PID.TID 0000.0001) %MON dynstat_eta_max              =   5.7919564727000E+00
(PID.TID 0000.0001) %MON dynstat_eta_min              =  -1.4199424213548E+01
(PID.TID 0000.0001) %MON dynstat_eta_mean             =  -2.5114302557924E+00
(PID.TID 0000.0001) %MON dynstat_eta_sd               =   4.9524906681042E+00
(PID.TID 0000.0001) %MON dynstat_eta_del2             =   2.0714130386548E-01
(PID.TID 0000.0001) %MON dynstat_uvel_max             =   1.6094059078323E-03
(PID.TID 0000.0001) %MON dynstat_uvel_min             =  -4.5222829103757E-03
(PID.TID 0000.0001) %MON dynstat_uvel_mean            =  -1.1847567080953E-07
(PID.TID 0000.0001) %MON dynstat_uvel_sd              =   1.8801647781415E-04
(PID.TID 0000.0001) %MON dynstat_uvel_del2            =   3.2612622658151E-07
(PID.TID 0000.0001) %MON dynstat_vvel_max             =   4.2924866942915E-03
(PID.TID 0000.0001) %MON dynstat_vvel_min             =  -2.3709372378136E-03
(PID.TID 0000.0001) %MON dynstat_vvel_mean            =   1.4952968273097E-05
(PID.TID 0000.0001) %MON dynstat_vvel_sd              =   1.6048328148202E-04
(PID.TID 0000.0001) %MON dynstat_vvel_del2            =   3.6909131712304E-07
(PID.TID 0000.0001) %MON dynstat_wvel_max             =   1.4020754887309E-04
(PID.TID 0000.0001) %MON dynstat_wvel_min             =  -2.4066319413251E-04
(PID.TID 0000.0001) %MON dynstat_wvel_mean            =   6.5708859307165E-09
(PID.TID 0000.0001) %MON dynstat_wvel_sd              =   2.4644886979671E-05
(PID.TID 0000.0001) %MON dynstat_wvel_del2            =   1.1472122249621E-07
(PID.TID 0000.0001) %MON dynstat_theta_max            =   1.2000000000000E+00
(PID.TID 0000.0001) %MON dynstat_theta_min            =  -1.0000000000000E+00
(PID.TID 0000.0001) %MON dynstat_theta_mean           =   5.6903092178046E-01
(PID.TID 0000.0001) %MON dynstat_theta_sd             =   8.6854608696392E-01
(PID.TID 0000.0001) %MON dynstat_theta_del2           =   1.0449348798918E-06
(PID.TID 0000.0001) %MON dynstat_salt_max             =   3.4700000000000E+01
(PID.TID 0000.0001) %MON dynstat_salt_min             =   3.4000000000000E+01
(PID.TID 0000.0001) %MON dynstat_salt_mean            =   3.4499226522542E+01
(PID.TID 0000.0001) %MON dynstat_salt_sd              =   2.7635263316165E-01
(PID.TID 0000.0001) %MON dynstat_salt_del2            =   3.7808851414700E-07
(PID.TID 0000.0001) %MON advcfl_uvel_max              =   4.5222829103757E-04
(PID.TID 0000.0001) %MON advcfl_vvel_max              =   4.2924866942915E-04
(PID.TID 0000.0001) %MON advcfl_wvel_max              =   1.2033159706626E-03
(PID.TID 0000.0001) %MON advcfl_W_hf_max              =   1.2033159706626E-03
(PID.TID 0000.0001) %MON pe_b_mean                    =  -8.3205883183939E-01
(PID.TID 0000.0001) %MON ke_max                       =   7.0134621811592E-06
(PID.TID 0000.0001) %MON ke_mean                      =   3.0312190698096E-08
(PID.TID 0000.0001) %MON ke_vol                       =   4.2725221854435E+12
(PID.TID 0000.0001) // =======================================================
(PID.TID 0000.0001) // End MONITOR dynamic field statistics
(PID.TID 0000.0001) // =======================================================
(PID.TID 0000.0001) // =======================================================
(PID.TID 0000.0001) // Begin OBCS MONITOR field statistics
(PID.TID 0000.0001) // =======================================================
(PID.TID 0000.0001) %MON obc_N_vVel_max               =   1.4722025513337E-05
(PID.TID 0000.0001) %MON obc_N_vVel_min               =   1.4722025513337E-05
(PID.TID 0000.0001) %MON obc_N_vVel_mean              =   1.4722025513337E-05
(PID.TID 0000.0001) %MON obc_N_vVel_sd                =   2.5114243310753E-12
(PID.TID 0000.0001) %MON obc_N_vVel_Int               =   9.7165368388024E+02
(PID.TID 0000.0001) // =======================================================
(PID.TID 0000.0001) // End OBCS MONITOR field statistics
(PID.TID 0000.0001) // =======================================================
 cg2d: Sum(rhs),rhsMax =   4.52224951304898E+00  2.99890510385597E+02
(PID.TID 0000.0001)      cg2d_init_res =   6.22609746797266E-06
(PID.TID 0000.0001)      cg2d_iters(min,last) =      -1      77
(PID.TID 0000.0001)      cg2d_last_res =   9.57020242709331E-12
(PID.TID 0000.0001) // =======================================================
(PID.TID 0000.0001) // Begin MONITOR dynamic field statistics
(PID.TID 0000.0001) // =======================================================
(PID.TID 0000.0001) %MON time_tsnumber                =                   475
(PID.TID 0000.0001) %MON time_secondsf                =   4.7500000000000E+04
(PID.TID 0000.0001) %MON dynstat_eta_max              =   5.7919231908739E+00
(PID.TID 0000.0001) %MON dynstat_eta_min              =  -1.4199447352152E+01
(PID.TID 0000.0001) %MON dynstat_eta_mean             =  -2.5114439158505E+00
(PID.TID 0000.0001) %MON dynstat_eta_sd               =   4.9524951984206E+00
(PID.TID 0000.0001) %MON dynstat_eta_del2             =   2.0714131225863E-01
(PID.TID 0000.0001) %MON dynstat_uvel_max             =   1.6021853709796E-03
(PID.TID 0000.0001) %MON dynstat_uvel_min             =  -4.5368998983486E-03
(PID.TID 0000.0001) %MON dynstat_uvel_mean            =  -1.1851552810839E-07
(PID.TID 0000.0001) %MON dynstat_uvel_sd              =   1.8846491543401E-04
(PID.TID 0000.0001) %MON dynstat_uvel_del2            =   3.2653813541442E-07
(PID.TID 0000.0001) %MON dynstat_vvel_max             =   4.2887008323937E-03
(PID.TID 0000.0001) %MON dynstat_vvel_min             =  -2.3708180350628E-03
(PID.TID 0000.0001) %MON dynstat_vvel_mean            =   1.4952745995268E-05
(PID.TID 0000.0001) %MON dynstat_vvel_sd              =   1.5981563319682E-04
(PID.TID 0000.0001) %MON dynstat_vvel_del2            =   3.6833456144539E-07
(PID.TID 0000.0001) %MON dynstat_wvel_max             =   1.3305036295428E-04
(PID.TID 0000.0001) %MON dynstat_wvel_min             =  -2.4006974579256E-04
(PID.TID 0000.0001) %MON dynstat_wvel_mean            =   6.5739085403526E-09
(PID.TID 0000.0001) %MON dynstat_wvel_sd              =   2.4247669325369E-05
(PID.TID 0000.0001) %MON dynstat_wvel_del2            =   1.1402656818299E-07
(PID.TID 0000.0001) %MON dynstat_theta_max            =   1.2000000000000E+00
(PID.TID 0000.0001) %MON dynstat_theta_min            =  -1.0000000000000E+00
(PID.TID 0000.0001) %MON dynstat_theta_mean           =   5.6903060666567E-01
(PID.TID 0000.0001) %MON dynstat_theta_sd             =   8.6854591663144E-01
(PID.TID 0000.0001) %MON dynstat_theta_del2           =   1.0479085688581E-06
(PID.TID 0000.0001) %MON dynstat_salt_max             =   3.4700000000000E+01
(PID.TID 0000.0001) %MON dynstat_salt_min             =   3.4000000000000E+01
(PID.TID 0000.0001) %MON dynstat_salt_mean            =   3.4499226396236E+01
(PID.TID 0000.0001) %MON dynstat_salt_sd              =   2.7635257023685E-01
(PID.TID 0000.0001) %MON dynstat_salt_del2            =   3.7913600616278E-07
(PID.TID 0000.0001) %MON advcfl_uvel_max              =   4.5368998983486E-04
(PID.TID 0000.0001) %MON advcfl_vvel_max              =   4.2887008323937E-04
(PID.TID 0000.0001) %MON advcfl_wvel_max              =   1.2003487289628E-03
(PID.TID 0000.0001) %MON advcfl_W_hf_max              =   1.2003487289628E-03
(PID.TID 0000.0001) %MON pe_b_mean                    =  -8.3206274549986E-01
(PID.TID 0000.0001) %MON ke_max                       =   6.9883664237494E-06
(PID.TID 0000.0001) %MON ke_mean                      =   3.0288015153298E-08
(PID.TID 0000.0001) %MON ke_vol                       =   4.2725221042806E+12
(PID.TID 0000.0001) // =======================================================
(PID.TID 0000.0001) // End MONITOR dynamic field statistics
(PID.TID 0000.0001) // =======================================================
(PID.TID 0000.0001) // =======================================================
(PID.TID 0000.0001) // Begin OBCS MONITOR field statistics
(PID.TID 0000.0001) // =======================================================
(PID.TID 0000.0001) %MON obc_N_vVel_max               =   1.4721619456793E-05
(PID.TID 0000.0001) %MON obc_N_vVel_min               =   1.4721619456793E-05
(PID.TID 0000.0001) %MON obc_N_vVel_mean              =   1.4721619456793E-05
(PID.TID 0000.0001) %MON obc_N_vVel_sd                =  -3.9549573037692E-24
(PID.TID 0000.0001) %MON obc_N_vVel_Int               =   9.7162688414834E+02
(PID.TID 0000.0001) // =======================================================
(PID.TID 0000.0001) // End OBCS MONITOR field statistics
(PID.TID 0000.0001) // =======================================================
 cg2d: Sum(rhs),rhsMax =   4.52227294856613E+00  2.99890587017644E+02
(PID.TID 0000.0001)      cg2d_init_res =   6.22190535012957E-06
(PID.TID 0000.0001)      cg2d_iters(min,last) =      -1      77
(PID.TID 0000.0001)      cg2d_last_res =   9.56456957260133E-12
(PID.TID 0000.0001) // =======================================================
(PID.TID 0000.0001) // Begin MONITOR dynamic field statistics
(PID.TID 0000.0001) // =======================================================
(PID.TID 0000.0001) %MON time_tsnumber                =                   476
(PID.TID 0000.0001) %MON time_secondsf                =   4.7600000000000E+04
(PID.TID 0000.0001) %MON dynstat_eta_max              =   5.7918899099247E+00
(PID.TID 0000.0001) %MON dynstat_eta_min              =  -1.4199470484295E+01
(PID.TID 0000.0001) %MON dynstat_eta_mean             =  -2.5114575725917E+00
(PID.TID 0000.0001) %MON dynstat_eta_sd               =   4.9524997282802E+00
(PID.TID 0000.0001) %MON dynstat_eta_del2             =   2.0714132067673E-01
(PID.TID 0000.0001) %MON dynstat_uvel_max             =   1.5949222241482E-03
(PID.TID 0000.0001) %MON dynstat_uvel_min             =  -4.5515467749127E-03
(PID.TID 0000.0001) %MON dynstat_uvel_mean            =  -1.1855508830979E-07
(PID.TID 0000.0001) %MON dynstat_uvel_sd              =   1.8891175827064E-04
(PID.TID 0000.0001) %MON dynstat_uvel_del2            =   3.2695082265861E-07
(PID.TID 0000.0001) %MON dynstat_vvel_max             =   4.2902902595522E-03
(PID.TID 0000.0001) %MON dynstat_vvel_min             =  -2.3706634112841E-03
(PID.TID 0000.0001) %MON dynstat_vvel_mean            =   1.4952967585931E-05
(PID.TID 0000.0001) %MON dynstat_vvel_sd              =   1.5915971177509E-04
(PID.TID 0000.0001) %MON dynstat_vvel_del2            =   3.6751158985313E-07
(PID.TID 0000.0001) %MON dynstat_wvel_max             =   1.2501447130611E-04
(PID.TID 0000.0001) %MON dynstat_wvel_min             =  -2.3812428980201E-04
(PID.TID 0000.0001) %MON dynstat_wvel_mean            =   6.5775677296871E-09
(PID.TID 0000.0001) %MON dynstat_wvel_sd              =   2.3835712630151E-05
(PID.TID 0000.0001) %MON dynstat_wvel_del2            =   1.1322092396865E-07
(PID.TID 0000.0001) %MON dynstat_theta_max            =   1.2000000000000E+00
(PID.TID 0000.0001) %MON dynstat_theta_min            =  -1.0000000000000E+00
(PID.TID 0000.0001) %MON dynstat_theta_mean           =   5.6903029137320E-01
(PID.TID 0000.0001) %MON dynstat_theta_sd             =   8.6854574598127E-01
(PID.TID 0000.0001) %MON dynstat_theta_del2           =   1.0510644415312E-06
(PID.TID 0000.0001) %MON dynstat_salt_max             =   3.4700000000000E+01
(PID.TID 0000.0001) %MON dynstat_salt_min             =   3.4000000000000E+01
(PID.TID 0000.0001) %MON dynstat_salt_mean            =   3.4499226269842E+01
(PID.TID 0000.0001) %MON dynstat_salt_sd              =   2.7635250719077E-01
(PID.TID 0000.0001) %MON dynstat_salt_del2            =   3.8023469239621E-07
(PID.TID 0000.0001) %MON advcfl_uvel_max              =   4.5515467749127E-04
(PID.TID 0000.0001) %MON advcfl_vvel_max              =   4.2902902595522E-04
(PID.TID 0000.0001) %MON advcfl_wvel_max              =   1.1906214490100E-03
(PID.TID 0000.0001) %MON advcfl_W_hf_max              =   1.1906214490100E-03
(PID.TID 0000.0001) %MON pe_b_mean                    =  -8.3206665807731E-01
(PID.TID 0000.0001) %MON ke_max                       =   6.9631924081369E-06
(PID.TID 0000.0001) %MON ke_mean                      =   3.0266059935675E-08
(PID.TID 0000.0001) %MON ke_vol                       =   4.2725220231398E+12
(PID.TID 0000.0001) // =======================================================
(PID.TID 0000.0001) // End MONITOR dynamic field statistics
(PID.TID 0000.0001) // =======================================================
(PID.TID 0000.0001) // =======================================================
(PID.TID 0000.0001) // Begin OBCS MONITOR field statistics
(PID.TID 0000.0001) // =======================================================
(PID.TID 0000.0001) %MON obc_N_vVel_max               =   1.4721583442796E-05
(PID.TID 0000.0001) %MON obc_N_vVel_min               =   1.4721583442795E-05
(PID.TID 0000.0001) %MON obc_N_vVel_mean              =   1.4721583442795E-05
(PID.TID 0000.0001) %MON obc_N_vVel_sd                =   3.2235782052243E-12
(PID.TID 0000.0001) %MON obc_N_vVel_Int               =   9.7162450722450E+02
(PID.TID 0000.0001) // =======================================================
(PID.TID 0000.0001) // End OBCS MONITOR field statistics
(PID.TID 0000.0001) // =======================================================
 cg2d: Sum(rhs),rhsMax =   4.52229637820148E+00  2.99890663691524E+02
(PID.TID 0000.0001)      cg2d_init_res =   6.21665547679159E-06
(PID.TID 0000.0001)      cg2d_iters(min,last) =      -1      77
(PID.TID 0000.0001)      cg2d_last_res =   9.54918305389048E-12
(PID.TID 0000.0001) // =======================================================
(PID.TID 0000.0001) // Begin MONITOR dynamic field statistics
(PID.TID 0000.0001) // =======================================================
(PID.TID 0000.0001) %MON time_tsnumber                =                   477
(PID.TID 0000.0001) %MON time_secondsf                =   4.7700000000000E+04
(PID.TID 0000.0001) %MON dynstat_eta_max              =   5.7918566296787E+00
(PID.TID 0000.0001) %MON dynstat_eta_min              =  -1.4199493610767E+01
(PID.TID 0000.0001) %MON dynstat_eta_mean             =  -2.5114712264234E+00
(PID.TID 0000.0001) %MON dynstat_eta_sd               =   4.9525042577940E+00
(PID.TID 0000.0001) %MON dynstat_eta_del2             =   2.0714132911941E-01
(PID.TID 0000.0001) %MON dynstat_uvel_max             =   1.5876168316840E-03
(PID.TID 0000.0001) %MON dynstat_uvel_min             =  -4.5662236705741E-03
(PID.TID 0000.0001) %MON dynstat_uvel_mean            =  -1.1859351605735E-07
(PID.TID 0000.0001) %MON dynstat_uvel_sd              =   1.8935665402780E-04
(PID.TID 0000.0001) %MON dynstat_uvel_del2            =   3.2736397649068E-07
(PID.TID 0000.0001) %MON dynstat_vvel_max             =   4.3002645856874E-03
(PID.TID 0000.0001) %MON dynstat_vvel_min             =  -2.3704735253229E-03
(PID.TID 0000.0001) %MON dynstat_vvel_mean            =   1.4953615448584E-05
(PID.TID 0000.0001) %MON dynstat_vvel_sd              =   1.5853184598193E-04
(PID.TID 0000.0001) %MON dynstat_vvel_del2            =   3.6664183385974E-07
(PID.TID 0000.0001) %MON dynstat_wvel_max             =   1.2710944940738E-04
(PID.TID 0000.0001) %MON dynstat_wvel_min             =  -2.3480738333559E-04
(PID.TID 0000.0001) %MON dynstat_wvel_mean            =   6.5817325464452E-09
(PID.TID 0000.0001) %MON dynstat_wvel_sd              =   2.3417965416945E-05
(PID.TID 0000.0001) %MON dynstat_wvel_del2            =   1.1231756744958E-07
(PID.TID 0000.0001) %MON dynstat_theta_max            =   1.2000000000000E+00
(PID.TID 0000.0001) %MON dynstat_theta_min            =  -1.0000000000000E+00
(PID.TID 0000.0001) %MON dynstat_theta_mean           =   5.6902997589818E-01
(PID.TID 0000.0001) %MON dynstat_theta_sd             =   8.6854557499627E-01
(PID.TID 0000.0001) %MON dynstat_theta_del2           =   1.0543354815568E-06
(PID.TID 0000.0001) %MON dynstat_salt_max             =   3.4700000000000E+01
(PID.TID 0000.0001) %MON dynstat_salt_min             =   3.4000000000000E+01
(PID.TID 0000.0001) %MON dynstat_salt_mean            =   3.4499226143357E+01
(PID.TID 0000.0001) %MON dynstat_salt_sd              =   2.7635244401804E-01
(PID.TID 0000.0001) %MON dynstat_salt_del2            =   3.8136583168236E-07
(PID.TID 0000.0001) %MON advcfl_uvel_max              =   4.5662236705741E-04
(PID.TID 0000.0001) %MON advcfl_vvel_max              =   4.3002645856874E-04
(PID.TID 0000.0001) %MON advcfl_wvel_max              =   1.1740369166780E-03
(PID.TID 0000.0001) %MON advcfl_W_hf_max              =   1.1740369166780E-03
(PID.TID 0000.0001) %MON pe_b_mean                    =  -8.3207056967747E-01
(PID.TID 0000.0001) %MON ke_max                       =   6.9379418410071E-06
(PID.TID 0000.0001) %MON ke_mean                      =   3.0248822493714E-08
(PID.TID 0000.0001) %MON ke_vol                       =   4.2725219420188E+12
(PID.TID 0000.0001) // =======================================================
(PID.TID 0000.0001) // End MONITOR dynamic field statistics
(PID.TID 0000.0001) // =======================================================
(PID.TID 0000.0001) // =======================================================
(PID.TID 0000.0001) // Begin OBCS MONITOR field statistics
(PID.TID 0000.0001) // =======================================================
(PID.TID 0000.0001) %MON obc_N_vVel_max               =   1.4721910867186E-05
(PID.TID 0000.0001) %MON obc_N_vVel_min               =   1.4721910867186E-05
(PID.TID 0000.0001) %MON obc_N_vVel_mean              =   1.4721910867186E-05
(PID.TID 0000.0001) %MON obc_N_vVel_sd                =  -7.5221736954041E-24
(PID.TID 0000.0001) %MON obc_N_vVel_Int               =   9.7164611723428E+02
(PID.TID 0000.0001) // =======================================================
(PID.TID 0000.0001) // End OBCS MONITOR field statistics
(PID.TID 0000.0001) // =======================================================
 cg2d: Sum(rhs),rhsMax =   4.52231980277215E+00  2.99890740399047E+02
(PID.TID 0000.0001)      cg2d_init_res =   6.21042467235391E-06
(PID.TID 0000.0001)      cg2d_iters(min,last) =      -1      77
(PID.TID 0000.0001)      cg2d_last_res =   9.53016897487781E-12
(PID.TID 0000.0001) // =======================================================
(PID.TID 0000.0001) // Begin MONITOR dynamic field statistics
(PID.TID 0000.0001) // =======================================================
(PID.TID 0000.0001) %MON time_tsnumber                =                   478
(PID.TID 0000.0001) %MON time_secondsf                =   4.7800000000000E+04
(PID.TID 0000.0001) %MON dynstat_eta_max              =   5.7918233500114E+00
(PID.TID 0000.0001) %MON dynstat_eta_min              =  -1.4199516732291E+01
(PID.TID 0000.0001) %MON dynstat_eta_mean             =  -2.5114848777308E+00
(PID.TID 0000.0001) %MON dynstat_eta_sd               =   4.9525087870641E+00
(PID.TID 0000.0001) %MON dynstat_eta_del2             =   2.0714133758649E-01
(PID.TID 0000.0001) %MON dynstat_uvel_max             =   1.5802695582010E-03
(PID.TID 0000.0001) %MON dynstat_uvel_min             =  -4.5809307146962E-03
(PID.TID 0000.0001) %MON dynstat_uvel_mean            =  -1.1862997358690E-07
(PID.TID 0000.0001) %MON dynstat_uvel_sd              =   1.8979927093243E-04
(PID.TID 0000.0001) %MON dynstat_uvel_del2            =   3.2777730466275E-07
(PID.TID 0000.0001) %MON dynstat_vvel_max             =   4.3102372075196E-03
(PID.TID 0000.0001) %MON dynstat_vvel_min             =  -2.3702485507542E-03
(PID.TID 0000.0001) %MON dynstat_vvel_mean            =   1.4954657920166E-05
(PID.TID 0000.0001) %MON dynstat_vvel_sd              =   1.5794845222715E-04
(PID.TID 0000.0001) %MON dynstat_vvel_del2            =   3.6574822626446E-07
(PID.TID 0000.0001) %MON dynstat_wvel_max             =   1.3068792069173E-04
(PID.TID 0000.0001) %MON dynstat_wvel_min             =  -2.3010956216536E-04
(PID.TID 0000.0001) %MON dynstat_wvel_mean            =   6.5862577150331E-09
(PID.TID 0000.0001) %MON dynstat_wvel_sd              =   2.3004610031811E-05
(PID.TID 0000.0001) %MON dynstat_wvel_del2            =   1.1133429762738E-07
(PID.TID 0000.0001) %MON dynstat_theta_max            =   1.2000000000000E+00
(PID.TID 0000.0001) %MON dynstat_theta_min            =  -1.0000000000000E+00
(PID.TID 0000.0001) %MON dynstat_theta_mean           =   5.6902966023503E-01
(PID.TID 0000.0001) %MON dynstat_theta_sd             =   8.6854540368199E-01
(PID.TID 0000.0001) %MON dynstat_theta_del2           =   1.0576487404405E-06
(PID.TID 0000.0001) %MON dynstat_salt_max             =   3.4700000000000E+01
(PID.TID 0000.0001) %MON dynstat_salt_min             =   3.4000000000000E+01
(PID.TID 0000.0001) %MON dynstat_salt_mean            =   3.4499226016780E+01
(PID.TID 0000.0001) %MON dynstat_salt_sd              =   2.7635238072056E-01
(PID.TID 0000.0001) %MON dynstat_salt_del2            =   3.8250902378893E-07
(PID.TID 0000.0001) %MON advcfl_uvel_max              =   4.5809307146962E-04
(PID.TID 0000.0001) %MON advcfl_vvel_max              =   4.3102372075196E-04
(PID.TID 0000.0001) %MON advcfl_wvel_max              =   1.1505478108268E-03
(PID.TID 0000.0001) %MON advcfl_W_hf_max              =   1.1505478108268E-03
(PID.TID 0000.0001) %MON pe_b_mean                    =  -8.3207448039764E-01
(PID.TID 0000.0001) %MON ke_max                       =   6.9126163922593E-06
(PID.TID 0000.0001) %MON ke_mean                      =   3.0238777829856E-08
(PID.TID 0000.0001) %MON ke_vol                       =   4.2725218609150E+12
(PID.TID 0000.0001) // =======================================================
(PID.TID 0000.0001) // End MONITOR dynamic field statistics
(PID.TID 0000.0001) // =======================================================
(PID.TID 0000.0001) // =======================================================
(PID.TID 0000.0001) // Begin OBCS MONITOR field statistics
(PID.TID 0000.0001) // =======================================================
(PID.TID 0000.0001) %MON obc_N_vVel_max               =   1.4722582988482E-05
(PID.TID 0000.0001) %MON obc_N_vVel_min               =   1.4722582988482E-05
(PID.TID 0000.0001) %MON obc_N_vVel_mean              =   1.4722582988482E-05
(PID.TID 0000.0001) %MON obc_N_vVel_sd                =  -1.4579058296247E-23
(PID.TID 0000.0001) %MON obc_N_vVel_Int               =   9.7169047723984E+02
(PID.TID 0000.0001) // =======================================================
(PID.TID 0000.0001) // End OBCS MONITOR field statistics
(PID.TID 0000.0001) // =======================================================
 cg2d: Sum(rhs),rhsMax =   4.52234322304309E+00  2.99890817131449E+02
(PID.TID 0000.0001)      cg2d_init_res =   6.20334005069226E-06
(PID.TID 0000.0001)      cg2d_iters(min,last) =      -1      77
(PID.TID 0000.0001)      cg2d_last_res =   9.51454355566635E-12
(PID.TID 0000.0001) // =======================================================
(PID.TID 0000.0001) // Begin MONITOR dynamic field statistics
(PID.TID 0000.0001) // =======================================================
(PID.TID 0000.0001) %MON time_tsnumber                =                   479
(PID.TID 0000.0001) %MON time_secondsf                =   4.7900000000000E+04
(PID.TID 0000.0001) %MON dynstat_eta_max              =   5.7917900708241E+00
(PID.TID 0000.0001) %MON dynstat_eta_min              =  -1.4199539849506E+01
(PID.TID 0000.0001) %MON dynstat_eta_mean             =  -2.5114985268653E+00
(PID.TID 0000.0001) %MON dynstat_eta_sd               =   4.9525133161690E+00
(PID.TID 0000.0001) %MON dynstat_eta_del2             =   2.0714134607775E-01
(PID.TID 0000.0001) %MON dynstat_uvel_max             =   1.5728807686059E-03
(PID.TID 0000.0001) %MON dynstat_uvel_min             =  -4.5956680356971E-03
(PID.TID 0000.0001) %MON dynstat_uvel_mean            =  -1.1866365966978E-07
(PID.TID 0000.0001) %MON dynstat_uvel_sd              =   1.9023930282516E-04
(PID.TID 0000.0001) %MON dynstat_uvel_del2            =   3.2819054197749E-07
(PID.TID 0000.0001) %MON dynstat_vvel_max             =   4.3202082708970E-03
(PID.TID 0000.0001) %MON dynstat_vvel_min             =  -2.3699886747792E-03
(PID.TID 0000.0001) %MON dynstat_vvel_mean            =   1.4956050538195E-05
(PID.TID 0000.0001) %MON dynstat_vvel_sd              =   1.5742555178997E-04
(PID.TID 0000.0001) %MON dynstat_vvel_del2            =   3.6485635648455E-07
(PID.TID 0000.0001) %MON dynstat_wvel_max             =   1.3254479376142E-04
(PID.TID 0000.0001) %MON dynstat_wvel_min             =  -2.2403189607815E-04
(PID.TID 0000.0001) %MON dynstat_wvel_mean            =   6.5909889633925E-09
(PID.TID 0000.0001) %MON dynstat_wvel_sd              =   2.2606851533632E-05
(PID.TID 0000.0001) %MON dynstat_wvel_del2            =   1.1029284564460E-07
(PID.TID 0000.0001) %MON dynstat_theta_max            =   1.2000000000000E+00
(PID.TID 0000.0001) %MON dynstat_theta_min            =  -1.0000000000000E+00
(PID.TID 0000.0001) %MON dynstat_theta_mean           =   5.6902934437738E-01
(PID.TID 0000.0001) %MON dynstat_theta_sd             =   8.6854523203968E-01
(PID.TID 0000.0001) %MON dynstat_theta_del2           =   1.0609272174990E-06
(PID.TID 0000.0001) %MON dynstat_salt_max             =   3.4700000000000E+01
(PID.TID 0000.0001) %MON dynstat_salt_min             =   3.4000000000000E+01
(PID.TID 0000.0001) %MON dynstat_salt_mean            =   3.4499225890109E+01
(PID.TID 0000.0001) %MON dynstat_salt_sd              =   2.7635231729843E-01
(PID.TID 0000.0001) %MON dynstat_salt_del2            =   3.8364273522002E-07
(PID.TID 0000.0001) %MON advcfl_uvel_max              =   4.5956680356971E-04
(PID.TID 0000.0001) %MON advcfl_vvel_max              =   4.3202082708970E-04
(PID.TID 0000.0001) %MON advcfl_wvel_max              =   1.1201594803907E-03
(PID.TID 0000.0001) %MON advcfl_W_hf_max              =   1.1201594803907E-03
(PID.TID 0000.0001) %MON pe_b_mean                    =  -8.3207839032278E-01
(PID.TID 0000.0001) %MON ke_max                       =   6.8872176987579E-06
(PID.TID 0000.0001) %MON ke_mean                      =   3.0238309209600E-08
(PID.TID 0000.0001) %MON ke_vol                       =   4.2725217798263E+12
(PID.TID 0000.0001) // =======================================================
(PID.TID 0000.0001) // End MONITOR dynamic field statistics
(PID.TID 0000.0001) // =======================================================
(PID.TID 0000.0001) // =======================================================
(PID.TID 0000.0001) // Begin OBCS MONITOR field statistics
(PID.TID 0000.0001) // =======================================================
(PID.TID 0000.0001) %MON obc_N_vVel_max               =   1.4723569798801E-05
(PID.TID 0000.0001) %MON obc_N_vVel_min               =   1.4723569798801E-05
(PID.TID 0000.0001) %MON obc_N_vVel_mean              =   1.4723569798801E-05
(PID.TID 0000.0001) %MON obc_N_vVel_sd                =   1.0294781007062E-12
(PID.TID 0000.0001) %MON obc_N_vVel_Int               =   9.7175560672086E+02
(PID.TID 0000.0001) // =======================================================
(PID.TID 0000.0001) // End OBCS MONITOR field statistics
(PID.TID 0000.0001) // =======================================================
 cg2d: Sum(rhs),rhsMax =   4.52236663971303E+00  2.99890893879548E+02
(PID.TID 0000.0001)      cg2d_init_res =   6.19557630702533E-06
(PID.TID 0000.0001)      cg2d_iters(min,last) =      -1      77
(PID.TID 0000.0001)      cg2d_last_res =   9.50557379840148E-12
(PID.TID 0000.0001) // =======================================================
(PID.TID 0000.0001) // Begin MONITOR dynamic field statistics
(PID.TID 0000.0001) // =======================================================
(PID.TID 0000.0001) %MON time_tsnumber                =                   480
(PID.TID 0000.0001) %MON time_secondsf                =   4.8000000000000E+04
(PID.TID 0000.0001) %MON dynstat_eta_max              =   5.7917567920667E+00
(PID.TID 0000.0001) %MON dynstat_eta_min              =  -1.4199562962970E+01
(PID.TID 0000.0001) %MON dynstat_eta_mean             =  -2.5115121741381E+00
(PID.TID 0000.0001) %MON dynstat_eta_sd               =   4.9525178451653E+00
(PID.TID 0000.0001) %MON dynstat_eta_del2             =   2.0714135459288E-01
(PID.TID 0000.0001) %MON dynstat_uvel_max             =   1.5654508279452E-03
(PID.TID 0000.0001) %MON dynstat_uvel_min             =  -4.6104357609327E-03
(PID.TID 0000.0001) %MON dynstat_uvel_mean            =  -1.1869388964040E-07
(PID.TID 0000.0001) %MON dynstat_uvel_sd              =   1.9067647381624E-04
(PID.TID 0000.0001) %MON dynstat_uvel_del2            =   3.2860345782959E-07
(PID.TID 0000.0001) %MON dynstat_vvel_max             =   4.3301779181731E-03
(PID.TID 0000.0001) %MON dynstat_vvel_min             =  -2.3696940966058E-03
(PID.TID 0000.0001) %MON dynstat_vvel_mean            =   1.4957737781726E-05
(PID.TID 0000.0001) %MON dynstat_vvel_sd              =   1.5697825391358E-04
(PID.TID 0000.0001) %MON dynstat_vvel_del2            =   3.6399348104862E-07
(PID.TID 0000.0001) %MON dynstat_wvel_max             =   1.3266564863179E-04
(PID.TID 0000.0001) %MON dynstat_wvel_min             =  -2.1658637653536E-04
(PID.TID 0000.0001) %MON dynstat_wvel_mean            =   6.5957672711116E-09
(PID.TID 0000.0001) %MON dynstat_wvel_sd              =   2.2236597921047E-05
(PID.TID 0000.0001) %MON dynstat_wvel_del2            =   1.0921813303352E-07
(PID.TID 0000.0001) %MON dynstat_theta_max            =   1.2000000000000E+00
(PID.TID 0000.0001) %MON dynstat_theta_min            =  -1.0000000000000E+00
(PID.TID 0000.0001) %MON dynstat_theta_mean           =   5.6902902831852E-01
(PID.TID 0000.0001) %MON dynstat_theta_sd             =   8.6854506009456E-01
(PID.TID 0000.0001) %MON dynstat_theta_del2           =   1.0640919023266E-06
(PID.TID 0000.0001) %MON dynstat_salt_max             =   3.4700000000000E+01
(PID.TID 0000.0001) %MON dynstat_salt_min             =   3.4000000000000E+01
(PID.TID 0000.0001) %MON dynstat_salt_mean            =   3.4499225763342E+01
(PID.TID 0000.0001) %MON dynstat_salt_sd              =   2.7635225375988E-01
(PID.TID 0000.0001) %MON dynstat_salt_del2            =   3.8474481639260E-07
(PID.TID 0000.0001) %MON advcfl_uvel_max              =   4.6104357609327E-04
(PID.TID 0000.0001) %MON advcfl_vvel_max              =   4.3301779181731E-04
(PID.TID 0000.0001) %MON advcfl_wvel_max              =   1.0829318826768E-03
(PID.TID 0000.0001) %MON advcfl_W_hf_max              =   1.0829318826768E-03
(PID.TID 0000.0001) %MON pe_b_mean                    =  -8.3208229952449E-01
(PID.TID 0000.0001) %MON ke_max                       =   6.8617473701295E-06
(PID.TID 0000.0001) %MON ke_mean                      =   3.0249637512241E-08
(PID.TID 0000.0001) %MON ke_vol                       =   4.2725216987504E+12
(PID.TID 0000.0001) // =======================================================
(PID.TID 0000.0001) // End MONITOR dynamic field statistics
(PID.TID 0000.0001) // =======================================================
(PID.TID 0000.0001) // =======================================================
(PID.TID 0000.0001) // Begin OBCS MONITOR field statistics
(PID.TID 0000.0001) // =======================================================
(PID.TID 0000.0001) %MON obc_N_vVel_max               =   1.4724831313944E-05
(PID.TID 0000.0001) %MON obc_N_vVel_min               =   1.4724831313944E-05
(PID.TID 0000.0001) %MON obc_N_vVel_mean              =   1.4724831313944E-05
(PID.TID 0000.0001) %MON obc_N_vVel_sd                =  -6.5657461121397E-24
(PID.TID 0000.0001) %MON obc_N_vVel_Int               =   9.7183886672032E+02
(PID.TID 0000.0001) // =======================================================
(PID.TID 0000.0001) // End OBCS MONITOR field statistics
(PID.TID 0000.0001) // =======================================================
 cg2d: Sum(rhs),rhsMax =   4.52239005338232E+00  2.99890970633997E+02
(PID.TID 0000.0001)      cg2d_init_res =   6.18732105288806E-06
(PID.TID 0000.0001)      cg2d_iters(min,last) =      -1      77
(PID.TID 0000.0001)      cg2d_last_res =   9.50162702189228E-12
(PID.TID 0000.0001) // =======================================================
(PID.TID 0000.0001) // Begin MONITOR dynamic field statistics
(PID.TID 0000.0001) // =======================================================
(PID.TID 0000.0001) %MON time_tsnumber                =                   481
(PID.TID 0000.0001) %MON time_secondsf                =   4.8100000000000E+04
(PID.TID 0000.0001) %MON dynstat_eta_max              =   5.7917235137267E+00
(PID.TID 0000.0001) %MON dynstat_eta_min              =  -1.4199586073138E+01
(PID.TID 0000.0001) %MON dynstat_eta_mean             =  -2.5115258198044E+00
(PID.TID 0000.0001) %MON dynstat_eta_sd               =   4.9525223740846E+00
(PID.TID 0000.0001) %MON dynstat_eta_del2             =   2.0714136313151E-01
(PID.TID 0000.0001) %MON dynstat_uvel_max             =   1.5579801014320E-03
(PID.TID 0000.0001) %MON dynstat_uvel_min             =  -4.6252340174746E-03
(PID.TID 0000.0001) %MON dynstat_uvel_mean            =  -1.1872009499111E-07
(PID.TID 0000.0001) %MON dynstat_uvel_sd              =   1.9111054238846E-04
(PID.TID 0000.0001) %MON dynstat_uvel_del2            =   3.2901586233502E-07
(PID.TID 0000.0001) %MON dynstat_vvel_max             =   4.3401462890564E-03
(PID.TID 0000.0001) %MON dynstat_vvel_min             =  -2.3693650254319E-03
(PID.TID 0000.0001) %MON dynstat_vvel_mean            =   1.4959655170660E-05
(PID.TID 0000.0001) %MON dynstat_vvel_sd              =   1.5662022479847E-04
(PID.TID 0000.0001) %MON dynstat_vvel_del2            =   3.6318744483715E-07
(PID.TID 0000.0001) %MON dynstat_wvel_max             =   1.3106237378512E-04
(PID.TID 0000.0001) %MON dynstat_wvel_min             =  -2.0779622963594E-04
(PID.TID 0000.0001) %MON dynstat_wvel_mean            =   6.6004345422967E-09
(PID.TID 0000.0001) %MON dynstat_wvel_sd              =   2.1906020185248E-05
(PID.TID 0000.0001) %MON dynstat_wvel_del2            =   1.0813742041087E-07
(PID.TID 0000.0001) %MON dynstat_theta_max            =   1.2000000000000E+00
(PID.TID 0000.0001) %MON dynstat_theta_min            =  -1.0000000000000E+00
(PID.TID 0000.0001) %MON dynstat_theta_mean           =   5.6902871205067E-01
(PID.TID 0000.0001) %MON dynstat_theta_sd             =   8.6854488786003E-01
(PID.TID 0000.0001) %MON dynstat_theta_del2           =   1.0670643452098E-06
(PID.TID 0000.0001) %MON dynstat_salt_max             =   3.4700000000000E+01
(PID.TID 0000.0001) %MON dynstat_salt_min             =   3.4000000000000E+01
(PID.TID 0000.0001) %MON dynstat_salt_mean            =   3.4499225636476E+01
(PID.TID 0000.0001) %MON dynstat_salt_sd              =   2.7635219010906E-01
(PID.TID 0000.0001) %MON dynstat_salt_del2            =   3.8579336170551E-07
(PID.TID 0000.0001) %MON advcfl_uvel_max              =   4.6252340174746E-04
(PID.TID 0000.0001) %MON advcfl_vvel_max              =   4.3401462890564E-04
(PID.TID 0000.0001) %MON advcfl_wvel_max              =   1.0389811481797E-03
(PID.TID 0000.0001) %MON advcfl_W_hf_max              =   1.0389811481797E-03
(PID.TID 0000.0001) %MON pe_b_mean                    =  -8.3208620805696E-01
(PID.TID 0000.0001) %MON ke_max                       =   6.8362069938160E-06
(PID.TID 0000.0001) %MON ke_mean                      =   3.0274751540169E-08
(PID.TID 0000.0001) %MON ke_vol                       =   4.2725216176856E+12
(PID.TID 0000.0001) // =======================================================
(PID.TID 0000.0001) // End MONITOR dynamic field statistics
(PID.TID 0000.0001) // =======================================================
(PID.TID 0000.0001) // =======================================================
(PID.TID 0000.0001) // Begin OBCS MONITOR field statistics
(PID.TID 0000.0001) // =======================================================
(PID.TID 0000.0001) %MON obc_N_vVel_max               =   1.4726319052891E-05
(PID.TID 0000.0001) %MON obc_N_vVel_min               =   1.4726319052890E-05
(PID.TID 0000.0001) %MON obc_N_vVel_mean              =   1.4726319052891E-05
(PID.TID 0000.0001) %MON obc_N_vVel_sd                =  -1.5664732850223E-23
(PID.TID 0000.0001) %MON obc_N_vVel_Int               =   9.7193705749081E+02
(PID.TID 0000.0001) // =======================================================
(PID.TID 0000.0001) // End OBCS MONITOR field statistics
(PID.TID 0000.0001) // =======================================================
 cg2d: Sum(rhs),rhsMax =   4.52241346453855E+00  2.99891047385484E+02
(PID.TID 0000.0001)      cg2d_init_res =   6.17877840124702E-06
(PID.TID 0000.0001)      cg2d_iters(min,last) =      -1      77
(PID.TID 0000.0001)      cg2d_last_res =   9.49926769781081E-12
(PID.TID 0000.0001) // =======================================================
(PID.TID 0000.0001) // Begin MONITOR dynamic field statistics
(PID.TID 0000.0001) // =======================================================
(PID.TID 0000.0001) %MON time_tsnumber                =                   482
(PID.TID 0000.0001) %MON time_secondsf                =   4.8200000000000E+04
(PID.TID 0000.0001) %MON dynstat_eta_max              =   5.7916902358364E+00
(PID.TID 0000.0001) %MON dynstat_eta_min              =  -1.4199609180347E+01
(PID.TID 0000.0001) %MON dynstat_eta_mean             =  -2.5115394640568E+00
(PID.TID 0000.0001) %MON dynstat_eta_sd               =   4.9525269029365E+00
(PID.TID 0000.0001) %MON dynstat_eta_del2             =   2.0714137169364E-01
(PID.TID 0000.0001) %MON dynstat_uvel_max             =   1.5504689544528E-03
(PID.TID 0000.0001) %MON dynstat_uvel_min             =  -4.6400629321619E-03
(PID.TID 0000.0001) %MON dynstat_uvel_mean            =  -1.1874184274362E-07
(PID.TID 0000.0001) %MON dynstat_uvel_sd              =   1.9154130484532E-04
(PID.TID 0000.0001) %MON dynstat_uvel_del2            =   3.2942761417618E-07
(PID.TID 0000.0001) %MON dynstat_vvel_max             =   4.3501135213257E-03
(PID.TID 0000.0001) %MON dynstat_vvel_min             =  -2.3690016786073E-03
(PID.TID 0000.0001) %MON dynstat_vvel_mean            =   1.4961731557708E-05
(PID.TID 0000.0001) %MON dynstat_vvel_sd              =   1.5636316627820E-04
(PID.TID 0000.0001) %MON dynstat_vvel_del2            =   3.6246557477397E-07
(PID.TID 0000.0001) %MON dynstat_wvel_max             =   1.2888036302465E-04
(PID.TID 0000.0001) %MON dynstat_wvel_min             =  -1.9769618147800E-04
(PID.TID 0000.0001) %MON dynstat_wvel_mean            =   6.6048383106538E-09
(PID.TID 0000.0001) %MON dynstat_wvel_sd              =   2.1626993299649E-05
(PID.TID 0000.0001) %MON dynstat_wvel_del2            =   1.0707939421109E-07
(PID.TID 0000.0001) %MON dynstat_theta_max            =   1.2000000000000E+00
(PID.TID 0000.0001) %MON dynstat_theta_min            =  -1.0000000000000E+00
(PID.TID 0000.0001) %MON dynstat_theta_mean           =   5.6902839556509E-01
(PID.TID 0000.0001) %MON dynstat_theta_sd             =   8.6854471531295E-01
(PID.TID 0000.0001) %MON dynstat_theta_del2           =   1.0697692768441E-06
(PID.TID 0000.0001) %MON dynstat_salt_max             =   3.4700000000000E+01
(PID.TID 0000.0001) %MON dynstat_salt_min             =   3.4000000000000E+01
(PID.TID 0000.0001) %MON dynstat_salt_mean            =   3.4499225509508E+01
(PID.TID 0000.0001) %MON dynstat_salt_sd              =   2.7635212633889E-01
(PID.TID 0000.0001) %MON dynstat_salt_del2            =   3.8676726362028E-07
(PID.TID 0000.0001) %MON advcfl_uvel_max              =   4.6400629321619E-04
(PID.TID 0000.0001) %MON advcfl_vvel_max              =   4.3501135213257E-04
(PID.TID 0000.0001) %MON advcfl_wvel_max              =   9.8848090738999E-04
(PID.TID 0000.0001) %MON advcfl_W_hf_max              =   9.8848090738999E-04
(PID.TID 0000.0001) %MON pe_b_mean                    =  -8.3209011595593E-01
(PID.TID 0000.0001) %MON ke_max                       =   6.8122980001105E-06
(PID.TID 0000.0001) %MON ke_mean                      =   3.0315341665657E-08
(PID.TID 0000.0001) %MON ke_vol                       =   4.2725215366304E+12
(PID.TID 0000.0001) // =======================================================
(PID.TID 0000.0001) // End MONITOR dynamic field statistics
(PID.TID 0000.0001) // =======================================================
(PID.TID 0000.0001) // =======================================================
(PID.TID 0000.0001) // Begin OBCS MONITOR field statistics
(PID.TID 0000.0001) // =======================================================
(PID.TID 0000.0001) %MON obc_N_vVel_max               =   1.4727977779099E-05
(PID.TID 0000.0001) %MON obc_N_vVel_min               =   1.4727977779099E-05
(PID.TID 0000.0001) %MON obc_N_vVel_mean              =   1.4727977779099E-05
(PID.TID 0000.0001) %MON obc_N_vVel_sd                =  -1.1890721305450E-24
(PID.TID 0000.0001) %MON obc_N_vVel_Int               =   9.7204653342056E+02
(PID.TID 0000.0001) // =======================================================
(PID.TID 0000.0001) // End OBCS MONITOR field statistics
(PID.TID 0000.0001) // =======================================================
 cg2d: Sum(rhs),rhsMax =   4.52243687355212E+00  2.99891124124970E+02
(PID.TID 0000.0001)      cg2d_init_res =   6.17014324685599E-06
(PID.TID 0000.0001)      cg2d_iters(min,last) =      -1      77
(PID.TID 0000.0001)      cg2d_last_res =   9.49625287453044E-12
(PID.TID 0000.0001) // =======================================================
(PID.TID 0000.0001) // Begin MONITOR dynamic field statistics
(PID.TID 0000.0001) // =======================================================
(PID.TID 0000.0001) %MON time_tsnumber                =                   483
(PID.TID 0000.0001) %MON time_secondsf                =   4.8300000000000E+04
(PID.TID 0000.0001) %MON dynstat_eta_max              =   5.7916569584811E+00
(PID.TID 0000.0001) %MON dynstat_eta_min              =  -1.4199632284825E+01
(PID.TID 0000.0001) %MON dynstat_eta_mean             =  -2.5115531070255E+00
(PID.TID 0000.0001) %MON dynstat_eta_sd               =   4.9525314317035E+00
(PID.TID 0000.0001) %MON dynstat_eta_del2             =   2.0714138027892E-01
(PID.TID 0000.0001) %MON dynstat_uvel_max             =   1.5429177524938E-03
(PID.TID 0000.0001) %MON dynstat_uvel_min             =  -4.6549226314827E-03
(PID.TID 0000.0001) %MON dynstat_uvel_mean            =  -1.1875884337817E-07
(PID.TID 0000.0001) %MON dynstat_uvel_sd              =   1.9196859800642E-04
(PID.TID 0000.0001) %MON dynstat_uvel_del2            =   3.2983862539258E-07
(PID.TID 0000.0001) %MON dynstat_vvel_max             =   4.3600797519728E-03
(PID.TID 0000.0001) %MON dynstat_vvel_min             =  -2.3686042789404E-03
(PID.TID 0000.0001) %MON dynstat_vvel_mean            =   1.4963891552737E-05
(PID.TID 0000.0001) %MON dynstat_vvel_sd              =   1.5621633105285E-04
(PID.TID 0000.0001) %MON dynstat_vvel_del2            =   3.6185360673162E-07
(PID.TID 0000.0001) %MON dynstat_wvel_max             =   1.2953038558625E-04
(PID.TID 0000.0001) %MON dynstat_wvel_min             =  -1.8633251468147E-04
(PID.TID 0000.0001) %MON dynstat_wvel_mean            =   6.6088373178700E-09
(PID.TID 0000.0001) %MON dynstat_wvel_sd              =   2.1410439152266E-05
(PID.TID 0000.0001) %MON dynstat_wvel_del2            =   1.0607323482345E-07
(PID.TID 0000.0001) %MON dynstat_theta_max            =   1.2000000000000E+00
(PID.TID 0000.0001) %MON dynstat_theta_min            =  -1.0000000000000E+00
(PID.TID 0000.0001) %MON dynstat_theta_mean           =   5.6902807885263E-01
(PID.TID 0000.0001) %MON dynstat_theta_sd             =   8.6854454243944E-01
(PID.TID 0000.0001) %MON dynstat_theta_del2           =   1.0721366121084E-06
(PID.TID 0000.0001) %MON dynstat_salt_max             =   3.4700000000000E+01
(PID.TID 0000.0001) %MON dynstat_salt_min             =   3.4000000000000E+01
(PID.TID 0000.0001) %MON dynstat_salt_mean            =   3.4499225382437E+01
(PID.TID 0000.0001) %MON dynstat_salt_sd              =   2.7635206244465E-01
(PID.TID 0000.0001) %MON dynstat_salt_del2            =   3.8764693244580E-07
(PID.TID 0000.0001) %MON advcfl_uvel_max              =   4.6549226314827E-04
(PID.TID 0000.0001) %MON advcfl_vvel_max              =   4.3600797519728E-04
(PID.TID 0000.0001) %MON advcfl_wvel_max              =   9.3166257340737E-04
(PID.TID 0000.0001) %MON advcfl_W_hf_max              =   9.3166257340737E-04
(PID.TID 0000.0001) %MON pe_b_mean                    =  -8.3209402323927E-01
(PID.TID 0000.0001) %MON ke_max                       =   6.8223622807384E-06
(PID.TID 0000.0001) %MON ke_mean                      =   3.0372739269496E-08
(PID.TID 0000.0001) %MON ke_vol                       =   4.2725214555835E+12
(PID.TID 0000.0001) // =======================================================
(PID.TID 0000.0001) // End MONITOR dynamic field statistics
(PID.TID 0000.0001) // =======================================================
(PID.TID 0000.0001) // =======================================================
(PID.TID 0000.0001) // Begin OBCS MONITOR field statistics
(PID.TID 0000.0001) // =======================================================
(PID.TID 0000.0001) %MON obc_N_vVel_max               =   1.4729747423578E-05
(PID.TID 0000.0001) %MON obc_N_vVel_min               =   1.4729747423578E-05
(PID.TID 0000.0001) %MON obc_N_vVel_mean              =   1.4729747423578E-05
(PID.TID 0000.0001) %MON obc_N_vVel_sd                =  -4.2909994276188E-24
(PID.TID 0000.0001) %MON obc_N_vVel_Int               =   9.7216332995617E+02
(PID.TID 0000.0001) // =======================================================
(PID.TID 0000.0001) // End OBCS MONITOR field statistics
(PID.TID 0000.0001) // =======================================================
 cg2d: Sum(rhs),rhsMax =   4.52246028065460E+00  2.99891200843871E+02
(PID.TID 0000.0001)      cg2d_init_res =   6.16161331811184E-06
(PID.TID 0000.0001)      cg2d_iters(min,last) =      -1      77
(PID.TID 0000.0001)      cg2d_last_res =   9.49344703238019E-12
(PID.TID 0000.0001) // =======================================================
(PID.TID 0000.0001) // Begin MONITOR dynamic field statistics
(PID.TID 0000.0001) // =======================================================
(PID.TID 0000.0001) %MON time_tsnumber                =                   484
(PID.TID 0000.0001) %MON time_secondsf                =   4.8400000000000E+04
(PID.TID 0000.0001) %MON dynstat_eta_max              =   5.7916236817902E+00
(PID.TID 0000.0001) %MON dynstat_eta_min              =  -1.4199655386670E+01
(PID.TID 0000.0001) %MON dynstat_eta_mean             =  -2.5115667487671E+00
(PID.TID 0000.0001) %MON dynstat_eta_sd               =   4.9525359603435E+00
(PID.TID 0000.0001) %MON dynstat_eta_del2             =   2.0714138888706E-01
(PID.TID 0000.0001) %MON dynstat_uvel_max             =   1.5353268611429E-03
(PID.TID 0000.0001) %MON dynstat_uvel_min             =  -4.6698132417449E-03
(PID.TID 0000.0001) %MON dynstat_uvel_mean            =  -1.1877095133091E-07
(PID.TID 0000.0001) %MON dynstat_uvel_sd              =   1.9239230105735E-04
(PID.TID 0000.0001) %MON dynstat_uvel_del2            =   3.3024886578989E-07
(PID.TID 0000.0001) %MON dynstat_vvel_max             =   4.3700451182006E-03
(PID.TID 0000.0001) %MON dynstat_vvel_min             =  -2.3681730524778E-03
(PID.TID 0000.0001) %MON dynstat_vvel_mean            =   1.4966058109890E-05
(PID.TID 0000.0001) %MON dynstat_vvel_sd              =   1.5618610161906E-04
(PID.TID 0000.0001) %MON dynstat_vvel_del2            =   3.6137469169536E-07
(PID.TID 0000.0001) %MON dynstat_wvel_max             =   1.3018204405511E-04
(PID.TID 0000.0001) %MON dynstat_wvel_min             =  -1.7376313202282E-04
(PID.TID 0000.0001) %MON dynstat_wvel_mean            =   6.6123060972924E-09
(PID.TID 0000.0001) %MON dynstat_wvel_sd              =   2.1265616969228E-05
(PID.TID 0000.0001) %MON dynstat_wvel_del2            =   1.0514769197942E-07
(PID.TID 0000.0001) %MON dynstat_theta_max            =   1.2000000000000E+00
(PID.TID 0000.0001) %MON dynstat_theta_min            =  -1.0000000000000E+00
(PID.TID 0000.0001) %MON dynstat_theta_mean           =   5.6902776190283E-01
(PID.TID 0000.0001) %MON dynstat_theta_sd             =   8.6854436926769E-01
(PID.TID 0000.0001) %MON dynstat_theta_del2           =   1.0741036344622E-06
(PID.TID 0000.0001) %MON dynstat_salt_max             =   3.4700000000000E+01
(PID.TID 0000.0001) %MON dynstat_salt_min             =   3.4000000000000E+01
(PID.TID 0000.0001) %MON dynstat_salt_mean            =   3.4499225255258E+01
(PID.TID 0000.0001) %MON dynstat_salt_sd              =   2.7635199843547E-01
(PID.TID 0000.0001) %MON dynstat_salt_del2            =   3.8841482296569E-07
(PID.TID 0000.0001) %MON advcfl_uvel_max              =   4.6698132417449E-04
(PID.TID 0000.0001) %MON advcfl_vvel_max              =   4.3700451182006E-04
(PID.TID 0000.0001) %MON advcfl_wvel_max              =   8.6881566011409E-04
(PID.TID 0000.0001) %MON advcfl_W_hf_max              =   8.6881566011409E-04
(PID.TID 0000.0001) %MON pe_b_mean                    =  -8.3209792990439E-01
(PID.TID 0000.0001) %MON ke_max                       =   6.8516762035644E-06
(PID.TID 0000.0001) %MON ke_mean                      =   3.0447864262988E-08
(PID.TID 0000.0001) %MON ke_vol                       =   4.2725213745443E+12
(PID.TID 0000.0001) // =======================================================
(PID.TID 0000.0001) // End MONITOR dynamic field statistics
(PID.TID 0000.0001) // =======================================================
(PID.TID 0000.0001) // =======================================================
(PID.TID 0000.0001) // Begin OBCS MONITOR field statistics
(PID.TID 0000.0001) // =======================================================
(PID.TID 0000.0001) %MON obc_N_vVel_max               =   1.4731565145372E-05
(PID.TID 0000.0001) %MON obc_N_vVel_min               =   1.4731565145372E-05
(PID.TID 0000.0001) %MON obc_N_vVel_mean              =   1.4731565145372E-05
(PID.TID 0000.0001) %MON obc_N_vVel_sd                =   3.7464944974281E-12
(PID.TID 0000.0001) %MON obc_N_vVel_Int               =   9.7228329959453E+02
(PID.TID 0000.0001) // =======================================================
(PID.TID 0000.0001) // End OBCS MONITOR field statistics
(PID.TID 0000.0001) // =======================================================
 cg2d: Sum(rhs),rhsMax =   4.52248368594479E+00  2.99891277534253E+02
(PID.TID 0000.0001)      cg2d_init_res =   6.15337352425816E-06
(PID.TID 0000.0001)      cg2d_iters(min,last) =      -1      77
(PID.TID 0000.0001)      cg2d_last_res =   9.49353922260753E-12
(PID.TID 0000.0001) // =======================================================
(PID.TID 0000.0001) // Begin MONITOR dynamic field statistics
(PID.TID 0000.0001) // =======================================================
(PID.TID 0000.0001) %MON time_tsnumber                =                   485
(PID.TID 0000.0001) %MON time_secondsf                =   4.8500000000000E+04
(PID.TID 0000.0001) %MON dynstat_eta_max              =   5.7915904059410E+00
(PID.TID 0000.0001) %MON dynstat_eta_min              =  -1.4199678485868E+01
(PID.TID 0000.0001) %MON dynstat_eta_mean             =  -2.5115803892700E+00
(PID.TID 0000.0001) %MON dynstat_eta_sd               =   4.9525404887926E+00
(PID.TID 0000.0001) %MON dynstat_eta_del2             =   2.0714139751776E-01
(PID.TID 0000.0001) %MON dynstat_uvel_max             =   1.5276966459710E-03
(PID.TID 0000.0001) %MON dynstat_uvel_min             =  -4.6847348895840E-03
(PID.TID 0000.0001) %MON dynstat_uvel_mean            =  -1.1877817324172E-07
(PID.TID 0000.0001) %MON dynstat_uvel_sd              =   1.9281233652221E-04
(PID.TID 0000.0001) %MON dynstat_uvel_del2            =   3.3065836593618E-07
(PID.TID 0000.0001) %MON dynstat_vvel_max             =   4.3800097582779E-03
(PID.TID 0000.0001) %MON dynstat_vvel_min             =  -2.3677082258793E-03
(PID.TID 0000.0001) %MON dynstat_vvel_mean            =   1.4968155226727E-05
(PID.TID 0000.0001) %MON dynstat_vvel_sd              =   1.5627565843048E-04
(PID.TID 0000.0001) %MON dynstat_vvel_del2            =   3.6104851439231E-07
(PID.TID 0000.0001) %MON dynstat_wvel_max             =   1.3083534047000E-04
(PID.TID 0000.0001) %MON dynstat_wvel_min             =  -1.6809278791833E-04
(PID.TID 0000.0001) %MON dynstat_wvel_mean            =   6.6151398588124E-09
(PID.TID 0000.0001) %MON dynstat_wvel_sd              =   2.1199432173085E-05
(PID.TID 0000.0001) %MON dynstat_wvel_del2            =   1.0433018598784E-07
(PID.TID 0000.0001) %MON dynstat_theta_max            =   1.2000000000000E+00
(PID.TID 0000.0001) %MON dynstat_theta_min            =  -1.0000000000000E+00
(PID.TID 0000.0001) %MON dynstat_theta_mean           =   5.6902744470461E-01
(PID.TID 0000.0001) %MON dynstat_theta_sd             =   8.6854419581246E-01
(PID.TID 0000.0001) %MON dynstat_theta_del2           =   1.0756168587904E-06
(PID.TID 0000.0001) %MON dynstat_salt_max             =   3.4700000000000E+01
(PID.TID 0000.0001) %MON dynstat_salt_min             =   3.4000000000000E+01
(PID.TID 0000.0001) %MON dynstat_salt_mean            =   3.4499225127968E+01
(PID.TID 0000.0001) %MON dynstat_salt_sd              =   2.7635193431603E-01
(PID.TID 0000.0001) %MON dynstat_salt_del2            =   3.8905606119954E-07
(PID.TID 0000.0001) %MON advcfl_uvel_max              =   4.6847348895840E-04
(PID.TID 0000.0001) %MON advcfl_vvel_max              =   4.3800097582779E-04
(PID.TID 0000.0001) %MON advcfl_wvel_max              =   8.4046393959167E-04
(PID.TID 0000.0001) %MON advcfl_W_hf_max              =   8.4046393959167E-04
(PID.TID 0000.0001) %MON pe_b_mean                    =  -8.3210183593060E-01
(PID.TID 0000.0001) %MON ke_max                       =   6.8926519321521E-06
(PID.TID 0000.0001) %MON ke_mean                      =   3.0541182805392E-08
(PID.TID 0000.0001) %MON ke_vol                       =   4.2725212935123E+12
(PID.TID 0000.0001) // =======================================================
(PID.TID 0000.0001) // End MONITOR dynamic field statistics
(PID.TID 0000.0001) // =======================================================
(PID.TID 0000.0001) // =======================================================
(PID.TID 0000.0001) // Begin OBCS MONITOR field statistics
(PID.TID 0000.0001) // =======================================================
(PID.TID 0000.0001) %MON obc_N_vVel_max               =   1.4733367481646E-05
(PID.TID 0000.0001) %MON obc_N_vVel_min               =   1.4733367481646E-05
(PID.TID 0000.0001) %MON obc_N_vVel_mean              =   1.4733367481646E-05
(PID.TID 0000.0001) %MON obc_N_vVel_sd                =   5.0638521887140E-12
(PID.TID 0000.0001) %MON obc_N_vVel_Int               =   9.7240225378863E+02
(PID.TID 0000.0001) // =======================================================
(PID.TID 0000.0001) // End OBCS MONITOR field statistics
(PID.TID 0000.0001) // =======================================================
 cg2d: Sum(rhs),rhsMax =   4.52250708937972E+00  2.99891354188993E+02
(PID.TID 0000.0001)      cg2d_init_res =   6.14560141817216E-06
(PID.TID 0000.0001)      cg2d_iters(min,last) =      -1      77
(PID.TID 0000.0001)      cg2d_last_res =   9.49847193247762E-12
(PID.TID 0000.0001) // =======================================================
(PID.TID 0000.0001) // Begin MONITOR dynamic field statistics
(PID.TID 0000.0001) // =======================================================
(PID.TID 0000.0001) %MON time_tsnumber                =                   486
(PID.TID 0000.0001) %MON time_secondsf                =   4.8600000000000E+04
(PID.TID 0000.0001) %MON dynstat_eta_max              =   5.7915571311416E+00
(PID.TID 0000.0001) %MON dynstat_eta_min              =  -1.4199701582296E+01
(PID.TID 0000.0001) %MON dynstat_eta_mean             =  -2.5115940284507E+00
(PID.TID 0000.0001) %MON dynstat_eta_sd               =   4.9525450169723E+00
(PID.TID 0000.0001) %MON dynstat_eta_del2             =   2.0714140617107E-01
(PID.TID 0000.0001) %MON dynstat_uvel_max             =   1.5200274736282E-03
(PID.TID 0000.0001) %MON dynstat_uvel_min             =  -4.6996877019119E-03
(PID.TID 0000.0001) %MON dynstat_uvel_mean            =  -1.1878066272659E-07
(PID.TID 0000.0001) %MON dynstat_uvel_sd              =   1.9322867028563E-04
(PID.TID 0000.0001) %MON dynstat_uvel_del2            =   3.3106721891765E-07
(PID.TID 0000.0001) %MON dynstat_vvel_max             =   4.3899738127093E-03
(PID.TID 0000.0001) %MON dynstat_vvel_min             =  -2.3672100242607E-03
(PID.TID 0000.0001) %MON dynstat_vvel_mean            =   1.4970110468922E-05
(PID.TID 0000.0001) %MON dynstat_vvel_sd              =   1.5648475990604E-04
(PID.TID 0000.0001) %MON dynstat_vvel_del2            =   3.6089055256780E-07
(PID.TID 0000.0001) %MON dynstat_wvel_max             =   1.3149027688478E-04
(PID.TID 0000.0001) %MON dynstat_wvel_min             =  -1.6871122143005E-04
(PID.TID 0000.0001) %MON dynstat_wvel_mean            =   6.6172566370040E-09
(PID.TID 0000.0001) %MON dynstat_wvel_sd              =   2.1215851641199E-05
(PID.TID 0000.0001) %MON dynstat_wvel_del2            =   1.0364594315342E-07
(PID.TID 0000.0001) %MON dynstat_theta_max            =   1.2000000000000E+00
(PID.TID 0000.0001) %MON dynstat_theta_min            =  -1.0000000000000E+00
(PID.TID 0000.0001) %MON dynstat_theta_mean           =   5.6902712724562E-01
(PID.TID 0000.0001) %MON dynstat_theta_sd             =   8.6854402206767E-01
(PID.TID 0000.0001) %MON dynstat_theta_del2           =   1.0766333816210E-06
(PID.TID 0000.0001) %MON dynstat_salt_max             =   3.4700000000000E+01
(PID.TID 0000.0001) %MON dynstat_salt_min             =   3.4000000000000E+01
(PID.TID 0000.0001) %MON dynstat_salt_mean            =   3.4499225000563E+01
(PID.TID 0000.0001) %MON dynstat_salt_sd              =   2.7635187008455E-01
(PID.TID 0000.0001) %MON dynstat_salt_del2            =   3.8955869434362E-07
(PID.TID 0000.0001) %MON advcfl_uvel_max              =   4.6996877019119E-04
(PID.TID 0000.0001) %MON advcfl_vvel_max              =   4.3899738127093E-04
(PID.TID 0000.0001) %MON advcfl_wvel_max              =   8.4355610715023E-04
(PID.TID 0000.0001) %MON advcfl_W_hf_max              =   8.4355610715023E-04
(PID.TID 0000.0001) %MON pe_b_mean                    =  -8.3210574127873E-01
(PID.TID 0000.0001) %MON ke_max                       =   6.9338467313904E-06
(PID.TID 0000.0001) %MON ke_mean                      =   3.0652677207341E-08
(PID.TID 0000.0001) %MON ke_vol                       =   4.2725212124877E+12
(PID.TID 0000.0001) // =======================================================
(PID.TID 0000.0001) // End MONITOR dynamic field statistics
(PID.TID 0000.0001) // =======================================================
(PID.TID 0000.0001) // =======================================================
(PID.TID 0000.0001) // Begin OBCS MONITOR field statistics
(PID.TID 0000.0001) // =======================================================
(PID.TID 0000.0001) %MON obc_N_vVel_max               =   1.4735092596618E-05
(PID.TID 0000.0001) %MON obc_N_vVel_min               =   1.4735092596618E-05
(PID.TID 0000.0001) %MON obc_N_vVel_mean              =   1.4735092596618E-05
(PID.TID 0000.0001) %MON obc_N_vVel_sd                =   4.2507324669350E-12
(PID.TID 0000.0001) %MON obc_N_vVel_Int               =   9.7251611137680E+02
(PID.TID 0000.0001) // =======================================================
(PID.TID 0000.0001) // End OBCS MONITOR field statistics
(PID.TID 0000.0001) // =======================================================
 cg2d: Sum(rhs),rhsMax =   4.52253049078573E+00  2.99891430801931E+02
(PID.TID 0000.0001)      cg2d_init_res =   6.13846986713852E-06
(PID.TID 0000.0001)      cg2d_iters(min,last) =      -1      77
(PID.TID 0000.0001)      cg2d_last_res =   9.50764731935417E-12
(PID.TID 0000.0001) // =======================================================
(PID.TID 0000.0001) // Begin MONITOR dynamic field statistics
(PID.TID 0000.0001) // =======================================================
(PID.TID 0000.0001) %MON time_tsnumber                =                   487
(PID.TID 0000.0001) %MON time_secondsf                =   4.8700000000000E+04
(PID.TID 0000.0001) %MON dynstat_eta_max              =   5.7915238576240E+00
(PID.TID 0000.0001) %MON dynstat_eta_min              =  -1.4199724675731E+01
(PID.TID 0000.0001) %MON dynstat_eta_mean             =  -2.5116076661613E+00
(PID.TID 0000.0001) %MON dynstat_eta_sd               =   4.9525495447897E+00
(PID.TID 0000.0001) %MON dynstat_eta_del2             =   2.0714141484715E-01
(PID.TID 0000.0001) %MON dynstat_uvel_max             =   1.5123197081196E-03
(PID.TID 0000.0001) %MON dynstat_uvel_min             =  -4.7146718063402E-03
(PID.TID 0000.0001) %MON dynstat_uvel_mean            =  -1.1877868800925E-07
(PID.TID 0000.0001) %MON dynstat_uvel_sd              =   1.9364131071934E-04
(PID.TID 0000.0001) %MON dynstat_uvel_del2            =   3.3147557964257E-07
(PID.TID 0000.0001) %MON dynstat_vvel_max             =   4.3999374247808E-03
(PID.TID 0000.0001) %MON dynstat_vvel_min             =  -2.3666786688068E-03
(PID.TID 0000.0001) %MON dynstat_vvel_mean            =   1.4971857331384E-05
(PID.TID 0000.0001) %MON dynstat_vvel_sd              =   1.5680964816294E-04
(PID.TID 0000.0001) %MON dynstat_vvel_del2            =   3.6091147084361E-07
(PID.TID 0000.0001) %MON dynstat_wvel_max             =   1.3214685538842E-04
(PID.TID 0000.0001) %MON dynstat_wvel_min             =  -1.6933050620356E-04
(PID.TID 0000.0001) %MON dynstat_wvel_mean            =   6.6185994207650E-09
(PID.TID 0000.0001) %MON dynstat_wvel_sd              =   2.1315508731037E-05
(PID.TID 0000.0001) %MON dynstat_wvel_del2            =   1.0311715854099E-07
(PID.TID 0000.0001) %MON dynstat_theta_max            =   1.2000000000000E+00
(PID.TID 0000.0001) %MON dynstat_theta_min            =  -1.0000000000000E+00
(PID.TID 0000.0001) %MON dynstat_theta_mean           =   5.6902680951265E-01
(PID.TID 0000.0001) %MON dynstat_theta_sd             =   8.6854384802443E-01
(PID.TID 0000.0001) %MON dynstat_theta_del2           =   1.0771230275925E-06
(PID.TID 0000.0001) %MON dynstat_salt_max             =   3.4700000000000E+01
(PID.TID 0000.0001) %MON dynstat_salt_min             =   3.4000000000000E+01
(PID.TID 0000.0001) %MON dynstat_salt_mean            =   3.4499224873039E+01
(PID.TID 0000.0001) %MON dynstat_salt_sd              =   2.7635180573800E-01
(PID.TID 0000.0001) %MON dynstat_salt_del2            =   3.8991441935122E-07
(PID.TID 0000.0001) %MON advcfl_uvel_max              =   4.7146718063402E-04
(PID.TID 0000.0001) %MON advcfl_vvel_max              =   4.3999374247808E-04
(PID.TID 0000.0001) %MON advcfl_wvel_max              =   8.4665253101779E-04
(PID.TID 0000.0001) %MON advcfl_W_hf_max              =   8.4665253101779E-04
(PID.TID 0000.0001) %MON pe_b_mean                    =  -8.3210964589365E-01
(PID.TID 0000.0001) %MON ke_max                       =   6.9752618642008E-06
(PID.TID 0000.0001) %MON ke_mean                      =   3.0781829293527E-08
(PID.TID 0000.0001) %MON ke_vol                       =   4.2725211314710E+12
(PID.TID 0000.0001) // =======================================================
(PID.TID 0000.0001) // End MONITOR dynamic field statistics
(PID.TID 0000.0001) // =======================================================
(PID.TID 0000.0001) // =======================================================
(PID.TID 0000.0001) // Begin OBCS MONITOR field statistics
(PID.TID 0000.0001) // =======================================================
(PID.TID 0000.0001) %MON obc_N_vVel_max               =   1.4736682335612E-05
(PID.TID 0000.0001) %MON obc_N_vVel_min               =   1.4736682335612E-05
(PID.TID 0000.0001) %MON obc_N_vVel_mean              =   1.4736682335612E-05
(PID.TID 0000.0001) %MON obc_N_vVel_sd                =  -1.0184661292059E-23
(PID.TID 0000.0001) %MON obc_N_vVel_Int               =   9.7262103415040E+02
(PID.TID 0000.0001) // =======================================================
(PID.TID 0000.0001) // End OBCS MONITOR field statistics
(PID.TID 0000.0001) // =======================================================
 cg2d: Sum(rhs),rhsMax =   4.52255388986011E+00  2.99891507367966E+02
(PID.TID 0000.0001)      cg2d_init_res =   6.13212667575098E-06
(PID.TID 0000.0001)      cg2d_iters(min,last) =      -1      77
(PID.TID 0000.0001)      cg2d_last_res =   9.51856147102817E-12
(PID.TID 0000.0001) // =======================================================
(PID.TID 0000.0001) // Begin MONITOR dynamic field statistics
(PID.TID 0000.0001) // =======================================================
(PID.TID 0000.0001) %MON time_tsnumber                =                   488
(PID.TID 0000.0001) %MON time_secondsf                =   4.8800000000000E+04
(PID.TID 0000.0001) %MON dynstat_eta_max              =   5.7914905856609E+00
(PID.TID 0000.0001) %MON dynstat_eta_min              =  -1.4199747765862E+01
(PID.TID 0000.0001) %MON dynstat_eta_mean             =  -2.5116213021908E+00
(PID.TID 0000.0001) %MON dynstat_eta_sd               =   4.9525540721338E+00
(PID.TID 0000.0001) %MON dynstat_eta_del2             =   2.0714142354578E-01
(PID.TID 0000.0001) %MON dynstat_uvel_max             =   1.5045737714719E-03
(PID.TID 0000.0001) %MON dynstat_uvel_min             =  -4.7296873311051E-03
(PID.TID 0000.0001) %MON dynstat_uvel_mean            =  -1.1877262565675E-07
(PID.TID 0000.0001) %MON dynstat_uvel_sd              =   1.9405030685244E-04
(PID.TID 0000.0001) %MON dynstat_uvel_del2            =   3.3188366288788E-07
(PID.TID 0000.0001) %MON dynstat_vvel_max             =   4.4099007418316E-03
(PID.TID 0000.0001) %MON dynstat_vvel_min             =  -2.3661143749241E-03
(PID.TID 0000.0001) %MON dynstat_vvel_mean            =   1.4973337408831E-05
(PID.TID 0000.0001) %MON dynstat_vvel_sd              =   1.5724308959220E-04
(PID.TID 0000.0001) %MON dynstat_vvel_del2            =   3.6111665904171E-07
(PID.TID 0000.0001) %MON dynstat_wvel_max             =   1.3724200109935E-04
(PID.TID 0000.0001) %MON dynstat_wvel_min             =  -1.6995064566621E-04
(PID.TID 0000.0001) %MON dynstat_wvel_mean            =   6.6191378774353E-09
(PID.TID 0000.0001) %MON dynstat_wvel_sd              =   2.1495558853292E-05
(PID.TID 0000.0001) %MON dynstat_wvel_del2            =   1.0276218348156E-07
(PID.TID 0000.0001) %MON dynstat_theta_max            =   1.2000000000000E+00
(PID.TID 0000.0001) %MON dynstat_theta_min            =  -1.0000000000000E+00
(PID.TID 0000.0001) %MON dynstat_theta_mean           =   5.6902649149113E-01
(PID.TID 0000.0001) %MON dynstat_theta_sd             =   8.6854367367567E-01
(PID.TID 0000.0001) %MON dynstat_theta_del2           =   1.0770696295323E-06
(PID.TID 0000.0001) %MON dynstat_salt_max             =   3.4700000000000E+01
(PID.TID 0000.0001) %MON dynstat_salt_min             =   3.4000000000000E+01
(PID.TID 0000.0001) %MON dynstat_salt_mean            =   3.4499224745391E+01
(PID.TID 0000.0001) %MON dynstat_salt_sd              =   2.7635174127422E-01
(PID.TID 0000.0001) %MON dynstat_salt_del2            =   3.9011897375208E-07
(PID.TID 0000.0001) %MON advcfl_uvel_max              =   4.7296873311051E-04
(PID.TID 0000.0001) %MON advcfl_vvel_max              =   4.4099007418316E-04
(PID.TID 0000.0001) %MON advcfl_wvel_max              =   8.4975322833103E-04
(PID.TID 0000.0001) %MON advcfl_W_hf_max              =   8.4975322833103E-04
(PID.TID 0000.0001) %MON pe_b_mean                    =  -8.3211354970462E-01
(PID.TID 0000.0001) %MON ke_max                       =   7.0168986027427E-06
(PID.TID 0000.0001) %MON ke_mean                      =   3.0927618520989E-08
(PID.TID 0000.0001) %MON ke_vol                       =   4.2725210504630E+12
(PID.TID 0000.0001) // =======================================================
(PID.TID 0000.0001) // End MONITOR dynamic field statistics
(PID.TID 0000.0001) // =======================================================
(PID.TID 0000.0001) // =======================================================
(PID.TID 0000.0001) // Begin OBCS MONITOR field statistics
(PID.TID 0000.0001) // =======================================================
(PID.TID 0000.0001) %MON obc_N_vVel_max               =   1.4738084050401E-05
(PID.TID 0000.0001) %MON obc_N_vVel_min               =   1.4738084050400E-05
(PID.TID 0000.0001) %MON obc_N_vVel_mean              =   1.4738084050401E-05
(PID.TID 0000.0001) %MON obc_N_vVel_sd                =  -1.9800635912988E-23
(PID.TID 0000.0001) %MON obc_N_vVel_Int               =   9.7271354732644E+02
(PID.TID 0000.0001) // =======================================================
(PID.TID 0000.0001) // End OBCS MONITOR field statistics
(PID.TID 0000.0001) // =======================================================
 cg2d: Sum(rhs),rhsMax =   4.52257728620870E+00  2.99891583883135E+02
(PID.TID 0000.0001)      cg2d_init_res =   6.12672663664603E-06
(PID.TID 0000.0001)      cg2d_iters(min,last) =      -1      77
(PID.TID 0000.0001)      cg2d_last_res =   9.52911991416615E-12
(PID.TID 0000.0001) // =======================================================
(PID.TID 0000.0001) // Begin MONITOR dynamic field statistics
(PID.TID 0000.0001) // =======================================================
(PID.TID 0000.0001) %MON time_tsnumber                =                   489
(PID.TID 0000.0001) %MON time_secondsf                =   4.8900000000000E+04
(PID.TID 0000.0001) %MON dynstat_eta_max              =   5.7914573155286E+00
(PID.TID 0000.0001) %MON dynstat_eta_min              =  -1.4199770852314E+01
(PID.TID 0000.0001) %MON dynstat_eta_mean             =  -2.5116349362871E+00
(PID.TID 0000.0001) %MON dynstat_eta_sd               =   4.9525585988879E+00
(PID.TID 0000.0001) %MON dynstat_eta_del2             =   2.0714143226704E-01
(PID.TID 0000.0001) %MON dynstat_uvel_max             =   1.4967903002750E-03
(PID.TID 0000.0001) %MON dynstat_uvel_min             =  -4.7447344052669E-03
(PID.TID 0000.0001) %MON dynstat_uvel_mean            =  -1.1876298586399E-07
(PID.TID 0000.0001) %MON dynstat_uvel_sd              =   1.9445574563033E-04
(PID.TID 0000.0001) %MON dynstat_uvel_del2            =   3.3229174028820E-07
(PID.TID 0000.0001) %MON dynstat_vvel_max             =   4.4198639153434E-03
(PID.TID 0000.0001) %MON dynstat_vvel_min             =  -2.3655173504054E-03
(PID.TID 0000.0001) %MON dynstat_vvel_mean            =   1.4974502231963E-05
(PID.TID 0000.0001) %MON dynstat_vvel_sd              =   1.5777454978553E-04
(PID.TID 0000.0001) %MON dynstat_vvel_del2            =   3.6150590546621E-07
(PID.TID 0000.0001) %MON dynstat_wvel_max             =   1.4217534740912E-04
(PID.TID 0000.0001) %MON dynstat_wvel_min             =  -1.7057164360339E-04
(PID.TID 0000.0001) %MON dynstat_wvel_mean            =   6.6188695945526E-09
(PID.TID 0000.0001) %MON dynstat_wvel_sd              =   2.1749804196780E-05
(PID.TID 0000.0001) %MON dynstat_wvel_del2            =   1.0259474233883E-07
(PID.TID 0000.0001) %MON dynstat_theta_max            =   1.2000000000000E+00
(PID.TID 0000.0001) %MON dynstat_theta_min            =  -1.0000000000000E+00
(PID.TID 0000.0001) %MON dynstat_theta_mean           =   5.6902617316681E-01
(PID.TID 0000.0001) %MON dynstat_theta_sd             =   8.6854349897176E-01
(PID.TID 0000.0001) %MON dynstat_theta_del2           =   1.0764708392976E-06
(PID.TID 0000.0001) %MON dynstat_salt_max             =   3.4700000000000E+01
(PID.TID 0000.0001) %MON dynstat_salt_min             =   3.4000000000000E+01
(PID.TID 0000.0001) %MON dynstat_salt_mean            =   3.4499224617615E+01
(PID.TID 0000.0001) %MON dynstat_salt_sd              =   2.7635167667735E-01
(PID.TID 0000.0001) %MON dynstat_salt_del2            =   3.9017193234669E-07
(PID.TID 0000.0001) %MON advcfl_uvel_max              =   4.7447344052669E-04
(PID.TID 0000.0001) %MON advcfl_vvel_max              =   4.4198639153434E-04
(PID.TID 0000.0001) %MON advcfl_wvel_max              =   8.5285821801693E-04
(PID.TID 0000.0001) %MON advcfl_W_hf_max              =   8.5285821801693E-04
(PID.TID 0000.0001) %MON pe_b_mean                    =  -8.3211745263223E-01
(PID.TID 0000.0001) %MON ke_max                       =   7.0587582295011E-06
(PID.TID 0000.0001) %MON ke_mean                      =   3.1088535528116E-08
(PID.TID 0000.0001) %MON ke_vol                       =   4.2725209694650E+12
(PID.TID 0000.0001) // =======================================================
(PID.TID 0000.0001) // End MONITOR dynamic field statistics
(PID.TID 0000.0001) // =======================================================
(PID.TID 0000.0001) // =======================================================
(PID.TID 0000.0001) // Begin OBCS MONITOR field statistics
(PID.TID 0000.0001) // =======================================================
(PID.TID 0000.0001) %MON obc_N_vVel_max               =   1.4739252235378E-05
(PID.TID 0000.0001) %MON obc_N_vVel_min               =   1.4739252235378E-05
(PID.TID 0000.0001) %MON obc_N_vVel_mean              =   1.4739252235378E-05
(PID.TID 0000.0001) %MON obc_N_vVel_sd                =  -8.9955891615142E-24
(PID.TID 0000.0001) %MON obc_N_vVel_Int               =   9.7279064753493E+02
(PID.TID 0000.0001) // =======================================================
(PID.TID 0000.0001) // End OBCS MONITOR field statistics
(PID.TID 0000.0001) // =======================================================
 cg2d: Sum(rhs),rhsMax =   4.52260067934385E+00  2.99891660344657E+02
(PID.TID 0000.0001)      cg2d_init_res =   6.12238939958622E-06
(PID.TID 0000.0001)      cg2d_iters(min,last) =      -1      77
(PID.TID 0000.0001)      cg2d_last_res =   9.53813095020350E-12
(PID.TID 0000.0001) // =======================================================
(PID.TID 0000.0001) // Begin MONITOR dynamic field statistics
(PID.TID 0000.0001) // =======================================================
(PID.TID 0000.0001) %MON time_tsnumber                =                   490
(PID.TID 0000.0001) %MON time_secondsf                =   4.9000000000000E+04
(PID.TID 0000.0001) %MON dynstat_eta_max              =   5.7914240475263E+00
(PID.TID 0000.0001) %MON dynstat_eta_min              =  -1.4199793934654E+01
(PID.TID 0000.0001) %MON dynstat_eta_mean             =  -2.5116485681561E+00
(PID.TID 0000.0001) %MON dynstat_eta_sd               =   4.9525631249284E+00
(PID.TID 0000.0001) %MON dynstat_eta_del2             =   2.0714144101083E-01
(PID.TID 0000.0001) %MON dynstat_uvel_max             =   1.4889699258697E-03
(PID.TID 0000.0001) %MON dynstat_uvel_min             =  -4.7598131588753E-03
(PID.TID 0000.0001) %MON dynstat_uvel_mean            =  -1.1875037912168E-07
(PID.TID 0000.0001) %MON dynstat_uvel_sd              =   1.9485774835484E-04
(PID.TID 0000.0001) %MON dynstat_uvel_del2            =   3.3270013399768E-07
(PID.TID 0000.0001) %MON dynstat_vvel_max             =   4.4298271104600E-03
(PID.TID 0000.0001) %MON dynstat_vvel_min             =  -2.3648877942843E-03
(PID.TID 0000.0001) %MON dynstat_vvel_mean            =   1.4975314761743E-05
(PID.TID 0000.0001) %MON dynstat_vvel_sd              =   1.5839049545808E-04
(PID.TID 0000.0001) %MON dynstat_vvel_del2            =   3.6207320050732E-07
(PID.TID 0000.0001) %MON dynstat_wvel_max             =   1.4540240681229E-04
(PID.TID 0000.0001) %MON dynstat_wvel_min             =  -1.7119350380675E-04
(PID.TID 0000.0001) %MON dynstat_wvel_mean            =   6.6178199149975E-09
(PID.TID 0000.0001) %MON dynstat_wvel_sd              =   2.2069059198041E-05
(PID.TID 0000.0001) %MON dynstat_wvel_del2            =   1.0262319350816E-07
(PID.TID 0000.0001) %MON dynstat_theta_max            =   1.2000000000000E+00
(PID.TID 0000.0001) %MON dynstat_theta_min            =  -1.0000000000000E+00
(PID.TID 0000.0001) %MON dynstat_theta_mean           =   5.6902585452450E-01
(PID.TID 0000.0001) %MON dynstat_theta_sd             =   8.6854332388786E-01
(PID.TID 0000.0001) %MON dynstat_theta_del2           =   1.0753389204665E-06
(PID.TID 0000.0001) %MON dynstat_salt_max             =   3.4700000000000E+01
(PID.TID 0000.0001) %MON dynstat_salt_min             =   3.4000000000000E+01
(PID.TID 0000.0001) %MON dynstat_salt_mean            =   3.4499224489707E+01
(PID.TID 0000.0001) %MON dynstat_salt_sd              =   2.7635161193960E-01
(PID.TID 0000.0001) %MON dynstat_salt_del2            =   3.9007701384287E-07
(PID.TID 0000.0001) %MON advcfl_uvel_max              =   4.7598131588753E-04
(PID.TID 0000.0001) %MON advcfl_vvel_max              =   4.4298271104600E-04
(PID.TID 0000.0001) %MON advcfl_wvel_max              =   8.5596751903374E-04
(PID.TID 0000.0001) %MON advcfl_W_hf_max              =   8.5596751903374E-04
(PID.TID 0000.0001) %MON pe_b_mean                    =  -8.3212135458816E-01
(PID.TID 0000.0001) %MON ke_max                       =   7.1008420381785E-06
(PID.TID 0000.0001) %MON ke_mean                      =   3.1262611509251E-08
(PID.TID 0000.0001) %MON ke_vol                       =   4.2725208884785E+12
(PID.TID 0000.0001) // =======================================================
(PID.TID 0000.0001) // End MONITOR dynamic field statistics
(PID.TID 0000.0001) // =======================================================
(PID.TID 0000.0001) // =======================================================
(PID.TID 0000.0001) // Begin OBCS MONITOR field statistics
(PID.TID 0000.0001) // =======================================================
(PID.TID 0000.0001) %MON obc_N_vVel_max               =   1.4740150017187E-05
(PID.TID 0000.0001) %MON obc_N_vVel_min               =   1.4740150017187E-05
(PID.TID 0000.0001) %MON obc_N_vVel_mean              =   1.4740150017187E-05
(PID.TID 0000.0001) %MON obc_N_vVel_sd                =  -1.6285118309638E-24
(PID.TID 0000.0001) %MON obc_N_vVel_Int               =   9.7284990113432E+02
(PID.TID 0000.0001) // =======================================================
(PID.TID 0000.0001) // End OBCS MONITOR field statistics
(PID.TID 0000.0001) // =======================================================
 cg2d: Sum(rhs),rhsMax =   4.52262406869848E+00  2.99891736750947E+02
(PID.TID 0000.0001)      cg2d_init_res =   6.11922089022403E-06
(PID.TID 0000.0001)      cg2d_iters(min,last) =      -1      77
(PID.TID 0000.0001)      cg2d_last_res =   9.54532754927824E-12
(PID.TID 0000.0001) // =======================================================
(PID.TID 0000.0001) // Begin MONITOR dynamic field statistics
(PID.TID 0000.0001) // =======================================================
(PID.TID 0000.0001) %MON time_tsnumber                =                   491
(PID.TID 0000.0001) %MON time_secondsf                =   4.9100000000000E+04
(PID.TID 0000.0001) %MON dynstat_eta_max              =   5.7913907819502E+00
(PID.TID 0000.0001) %MON dynstat_eta_min              =  -1.4199817012416E+01
(PID.TID 0000.0001) %MON dynstat_eta_mean             =  -2.5116621974697E+00
(PID.TID 0000.0001) %MON dynstat_eta_sd               =   4.9525676501368E+00
(PID.TID 0000.0001) %MON dynstat_eta_del2             =   2.0714144977714E-01
(PID.TID 0000.0001) %MON dynstat_uvel_max             =   1.4811132786957E-03
(PID.TID 0000.0001) %MON dynstat_uvel_min             =  -4.7749237228212E-03
(PID.TID 0000.0001) %MON dynstat_uvel_mean            =  -1.1873544281944E-07
(PID.TID 0000.0001) %MON dynstat_uvel_sd              =   1.9525646644504E-04
(PID.TID 0000.0001) %MON dynstat_uvel_del2            =   3.3310920898918E-07
(PID.TID 0000.0001) %MON dynstat_vvel_max             =   4.4397904883302E-03
(PID.TID 0000.0001) %MON dynstat_vvel_min             =  -2.3642258957999E-03
(PID.TID 0000.0001) %MON dynstat_vvel_mean            =   1.4975750510465E-05
(PID.TID 0000.0001) %MON dynstat_vvel_sd              =   1.5907480740844E-04
(PID.TID 0000.0001) %MON dynstat_vvel_del2            =   3.6280666868277E-07
(PID.TID 0000.0001) %MON dynstat_wvel_max             =   1.4687873067917E-04
(PID.TID 0000.0001) %MON dynstat_wvel_min             =  -1.7181623041839E-04
(PID.TID 0000.0001) %MON dynstat_wvel_mean            =   6.6160394705173E-09
(PID.TID 0000.0001) %MON dynstat_wvel_sd              =   2.2441690757398E-05
(PID.TID 0000.0001) %MON dynstat_wvel_del2            =   1.0284987002453E-07
(PID.TID 0000.0001) %MON dynstat_theta_max            =   1.2000000000000E+00
(PID.TID 0000.0001) %MON dynstat_theta_min            =  -1.0000000000000E+00
(PID.TID 0000.0001) %MON dynstat_theta_mean           =   5.6902553554787E-01
(PID.TID 0000.0001) %MON dynstat_theta_sd             =   8.6854314844148E-01
(PID.TID 0000.0001) %MON dynstat_theta_del2           =   1.0737014666904E-06
(PID.TID 0000.0001) %MON dynstat_salt_max             =   3.4700000000000E+01
(PID.TID 0000.0001) %MON dynstat_salt_min             =   3.4000000000000E+01
(PID.TID 0000.0001) %MON dynstat_salt_mean            =   3.4499224361660E+01
(PID.TID 0000.0001) %MON dynstat_salt_sd              =   2.7635154706651E-01
(PID.TID 0000.0001) %MON dynstat_salt_del2            =   3.8984229218385E-07
(PID.TID 0000.0001) %MON advcfl_uvel_max              =   4.7749237228212E-04
(PID.TID 0000.0001) %MON advcfl_vvel_max              =   4.4397904883302E-04
(PID.TID 0000.0001) %MON advcfl_wvel_max              =   8.5908115209194E-04
(PID.TID 0000.0001) %MON advcfl_W_hf_max              =   8.5908115209195E-04
(PID.TID 0000.0001) %MON pe_b_mean                    =  -8.3212525547755E-01
(PID.TID 0000.0001) %MON ke_max                       =   7.1431513336906E-06
(PID.TID 0000.0001) %MON ke_mean                      =   3.1447463056430E-08
(PID.TID 0000.0001) %MON ke_vol                       =   4.2725208075052E+12
(PID.TID 0000.0001) // =======================================================
(PID.TID 0000.0001) // End MONITOR dynamic field statistics
(PID.TID 0000.0001) // =======================================================
(PID.TID 0000.0001) // =======================================================
(PID.TID 0000.0001) // Begin OBCS MONITOR field statistics
(PID.TID 0000.0001) // =======================================================
(PID.TID 0000.0001) %MON obc_N_vVel_max               =   1.4740750275816E-05
(PID.TID 0000.0001) %MON obc_N_vVel_min               =   1.4740750275816E-05
(PID.TID 0000.0001) %MON obc_N_vVel_mean              =   1.4740750275816E-05
(PID.TID 0000.0001) %MON obc_N_vVel_sd                =  -1.2898847676999E-23
(PID.TID 0000.0001) %MON obc_N_vVel_Int               =   9.7288951820389E+02
(PID.TID 0000.0001) // =======================================================
(PID.TID 0000.0001) // End OBCS MONITOR field statistics
(PID.TID 0000.0001) // =======================================================
 cg2d: Sum(rhs),rhsMax =   4.52264745366023E+00  2.99891813101601E+02
(PID.TID 0000.0001)      cg2d_init_res =   6.11730636661640E-06
(PID.TID 0000.0001)      cg2d_iters(min,last) =      -1      77
(PID.TID 0000.0001)      cg2d_last_res =   9.55098817480890E-12
(PID.TID 0000.0001) // =======================================================
(PID.TID 0000.0001) // Begin MONITOR dynamic field statistics
(PID.TID 0000.0001) // =======================================================
(PID.TID 0000.0001) %MON time_tsnumber                =                   492
(PID.TID 0000.0001) %MON time_secondsf                =   4.9200000000000E+04
(PID.TID 0000.0001) %MON dynstat_eta_max              =   5.7913575190823E+00
(PID.TID 0000.0001) %MON dynstat_eta_min              =  -1.4199840085135E+01
(PID.TID 0000.0001) %MON dynstat_eta_mean             =  -2.5116758238843E+00
(PID.TID 0000.0001) %MON dynstat_eta_sd               =   4.9525721743947E+00
(PID.TID 0000.0001) %MON dynstat_eta_del2             =   2.0714145856603E-01
(PID.TID 0000.0001) %MON dynstat_uvel_max             =   1.4732209870114E-03
(PID.TID 0000.0001) %MON dynstat_uvel_min             =  -4.7900662289351E-03
(PID.TID 0000.0001) %MON dynstat_uvel_mean            =  -1.1871885075374E-07
(PID.TID 0000.0001) %MON dynstat_uvel_sd              =   1.9565207652936E-04
(PID.TID 0000.0001) %MON dynstat_uvel_del2            =   3.3351936417926E-07
(PID.TID 0000.0001) %MON dynstat_vvel_max             =   4.4497542160396E-03
(PID.TID 0000.0001) %MON dynstat_vvel_min             =  -2.3635318336819E-03
(PID.TID 0000.0001) %MON dynstat_vvel_mean            =   1.4975798202005E-05
(PID.TID 0000.0001) %MON dynstat_vvel_sd              =   1.5980928524926E-04
(PID.TID 0000.0001) %MON dynstat_vvel_del2            =   3.6368862897137E-07
(PID.TID 0000.0001) %MON dynstat_wvel_max             =   1.4658458762759E-04
(PID.TID 0000.0001) %MON dynstat_wvel_min             =  -1.7243982773387E-04
(PID.TID 0000.0001) %MON dynstat_wvel_mean            =   6.6136029809057E-09
(PID.TID 0000.0001) %MON dynstat_wvel_sd              =   2.2854250333485E-05
(PID.TID 0000.0001) %MON dynstat_wvel_del2            =   1.0327054158403E-07
(PID.TID 0000.0001) %MON dynstat_theta_max            =   1.2000000000000E+00
(PID.TID 0000.0001) %MON dynstat_theta_min            =  -1.0000000000000E+00
(PID.TID 0000.0001) %MON dynstat_theta_mean           =   5.6902521622032E-01
(PID.TID 0000.0001) %MON dynstat_theta_sd             =   8.6854297264828E-01
(PID.TID 0000.0001) %MON dynstat_theta_del2           =   1.0716022389079E-06
(PID.TID 0000.0001) %MON dynstat_salt_max             =   3.4700000000000E+01
(PID.TID 0000.0001) %MON dynstat_salt_min             =   3.4000000000000E+01
(PID.TID 0000.0001) %MON dynstat_salt_mean            =   3.4499224233469E+01
(PID.TID 0000.0001) %MON dynstat_salt_sd              =   2.7635148206320E-01
(PID.TID 0000.0001) %MON dynstat_salt_del2            =   3.8948030178030E-07
(PID.TID 0000.0001) %MON advcfl_uvel_max              =   4.7900662289351E-04
(PID.TID 0000.0001) %MON advcfl_vvel_max              =   4.4497542160396E-04
(PID.TID 0000.0001) %MON advcfl_wvel_max              =   8.6219913866936E-04
(PID.TID 0000.0001) %MON advcfl_W_hf_max              =   8.6219913866936E-04
(PID.TID 0000.0001) %MON pe_b_mean                    =  -8.3212915520468E-01
(PID.TID 0000.0001) %MON ke_max                       =   7.1856874326163E-06
(PID.TID 0000.0001) %MON ke_mean                      =   3.1640351863072E-08
(PID.TID 0000.0001) %MON ke_vol                       =   4.2725207265470E+12
(PID.TID 0000.0001) // =======================================================
(PID.TID 0000.0001) // End MONITOR dynamic field statistics
(PID.TID 0000.0001) // =======================================================
(PID.TID 0000.0001) // =======================================================
(PID.TID 0000.0001) // Begin OBCS MONITOR field statistics
(PID.TID 0000.0001) // =======================================================
(PID.TID 0000.0001) %MON obc_N_vVel_max               =   1.4741036356497E-05
(PID.TID 0000.0001) %MON obc_N_vVel_min               =   1.4741036356497E-05
(PID.TID 0000.0001) %MON obc_N_vVel_mean              =   1.4741036356497E-05
(PID.TID 0000.0001) %MON obc_N_vVel_sd                =  -8.0133121841075E-24
(PID.TID 0000.0001) %MON obc_N_vVel_Int               =   9.7290839952882E+02
(PID.TID 0000.0001) // =======================================================
(PID.TID 0000.0001) // End OBCS MONITOR field statistics
(PID.TID 0000.0001) // =======================================================
 cg2d: Sum(rhs),rhsMax =   4.52267083358290E+00  2.99891889397320E+02
(PID.TID 0000.0001)      cg2d_init_res =   6.11670271070489E-06
(PID.TID 0000.0001)      cg2d_iters(min,last) =      -1      77
(PID.TID 0000.0001)      cg2d_last_res =   9.55530584274218E-12
(PID.TID 0000.0001) // =======================================================
(PID.TID 0000.0001) // Begin MONITOR dynamic field statistics
(PID.TID 0000.0001) // =======================================================
(PID.TID 0000.0001) %MON time_tsnumber                =                   493
(PID.TID 0000.0001) %MON time_secondsf                =   4.9300000000000E+04
(PID.TID 0000.0001) %MON dynstat_eta_max              =   5.7913242592030E+00
(PID.TID 0000.0001) %MON dynstat_eta_min              =  -1.4199863152350E+01
(PID.TID 0000.0001) %MON dynstat_eta_mean             =  -2.5116894470469E+00
(PID.TID 0000.0001) %MON dynstat_eta_sd               =   4.9525766975934E+00
(PID.TID 0000.0001) %MON dynstat_eta_del2             =   2.0714146737787E-01
(PID.TID 0000.0001) %MON dynstat_uvel_max             =   1.4652936768515E-03
(PID.TID 0000.0001) %MON dynstat_uvel_min             =  -4.8052408103141E-03
(PID.TID 0000.0001) %MON dynstat_uvel_mean            =  -1.1870131028863E-07
(PID.TID 0000.0001) %MON dynstat_uvel_sd              =   1.9604477505922E-04
(PID.TID 0000.0001) %MON dynstat_uvel_del2            =   3.3393102205590E-07
(PID.TID 0000.0001) %MON dynstat_vvel_max             =   4.4597184665111E-03
(PID.TID 0000.0001) %MON dynstat_vvel_min             =  -2.3628057761869E-03
(PID.TID 0000.0001) %MON dynstat_vvel_mean            =   1.4975460018030E-05
(PID.TID 0000.0001) %MON dynstat_vvel_sd              =   1.6057422099547E-04
(PID.TID 0000.0001) %MON dynstat_vvel_del2            =   3.6469579828058E-07
(PID.TID 0000.0001) %MON dynstat_wvel_max             =   1.4452537314677E-04
(PID.TID 0000.0001) %MON dynstat_wvel_min             =  -1.7306430029348E-04
(PID.TID 0000.0001) %MON dynstat_wvel_mean            =   6.6106084492666E-09
(PID.TID 0000.0001) %MON dynstat_wvel_sd              =   2.3292120821468E-05
(PID.TID 0000.0001) %MON dynstat_wvel_del2            =   1.0387406144282E-07
(PID.TID 0000.0001) %MON dynstat_theta_max            =   1.2000000000000E+00
(PID.TID 0000.0001) %MON dynstat_theta_min            =  -1.0000000000000E+00
(PID.TID 0000.0001) %MON dynstat_theta_mean           =   5.6902489652434E-01
(PID.TID 0000.0001) %MON dynstat_theta_sd             =   8.6854279654017E-01
(PID.TID 0000.0001) %MON dynstat_theta_del2           =   1.0691006852048E-06
(PID.TID 0000.0001) %MON dynstat_salt_max             =   3.4700000000000E+01
(PID.TID 0000.0001) %MON dynstat_salt_min             =   3.4000000000000E+01
(PID.TID 0000.0001) %MON dynstat_salt_mean            =   3.4499224105130E+01
(PID.TID 0000.0001) %MON dynstat_salt_sd              =   2.7635141693966E-01
(PID.TID 0000.0001) %MON dynstat_salt_del2            =   3.8900801475109E-07
(PID.TID 0000.0001) %MON advcfl_uvel_max              =   4.8052408103141E-04
(PID.TID 0000.0001) %MON advcfl_vvel_max              =   4.4597184665111E-04
(PID.TID 0000.0001) %MON advcfl_wvel_max              =   8.6532150146739E-04
(PID.TID 0000.0001) %MON advcfl_W_hf_max              =   8.6532150146739E-04
(PID.TID 0000.0001) %MON pe_b_mean                    =  -8.3213305367422E-01
(PID.TID 0000.0001) %MON ke_max                       =   7.2284516643812E-06
(PID.TID 0000.0001) %MON ke_mean                      =   3.1838258114508E-08
(PID.TID 0000.0001) %MON ke_vol                       =   4.2725206456061E+12
(PID.TID 0000.0001) // =======================================================
(PID.TID 0000.0001) // End MONITOR dynamic field statistics
(PID.TID 0000.0001) // =======================================================
(PID.TID 0000.0001) // =======================================================
(PID.TID 0000.0001) // Begin OBCS MONITOR field statistics
(PID.TID 0000.0001) // =======================================================
(PID.TID 0000.0001) %MON obc_N_vVel_max               =   1.4741002495273E-05
(PID.TID 0000.0001) %MON obc_N_vVel_min               =   1.4741002495272E-05
(PID.TID 0000.0001) %MON obc_N_vVel_mean              =   1.4741002495273E-05
(PID.TID 0000.0001) %MON obc_N_vVel_sd                =  -8.6853964318068E-24
(PID.TID 0000.0001) %MON obc_N_vVel_Int               =   9.7290616468800E+02
(PID.TID 0000.0001) // =======================================================
(PID.TID 0000.0001) // End OBCS MONITOR field statistics
(PID.TID 0000.0001) // =======================================================
 cg2d: Sum(rhs),rhsMax =   4.52269420781523E+00  2.99891965639845E+02
(PID.TID 0000.0001)      cg2d_init_res =   6.11743093146220E-06
(PID.TID 0000.0001)      cg2d_iters(min,last) =      -1      77
(PID.TID 0000.0001)      cg2d_last_res =   9.55925441889484E-12
(PID.TID 0000.0001) // =======================================================
(PID.TID 0000.0001) // Begin MONITOR dynamic field statistics
(PID.TID 0000.0001) // =======================================================
(PID.TID 0000.0001) %MON time_tsnumber                =                   494
(PID.TID 0000.0001) %MON time_secondsf                =   4.9400000000000E+04
(PID.TID 0000.0001) %MON dynstat_eta_max              =   5.7912910025539E+00
(PID.TID 0000.0001) %MON dynstat_eta_min              =  -1.4199886213772E+01
(PID.TID 0000.0001) %MON dynstat_eta_mean             =  -2.5117030666105E+00
(PID.TID 0000.0001) %MON dynstat_eta_sd               =   4.9525812196288E+00
(PID.TID 0000.0001) %MON dynstat_eta_del2             =   2.0714147621264E-01
(PID.TID 0000.0001) %MON dynstat_uvel_max             =   1.4573319719913E-03
(PID.TID 0000.0001) %MON dynstat_uvel_min             =  -4.8204476006122E-03
(PID.TID 0000.0001) %MON dynstat_uvel_mean            =  -1.1868355583768E-07
(PID.TID 0000.0001) %MON dynstat_uvel_sd              =   1.9643477259472E-04
(PID.TID 0000.0001) %MON dynstat_uvel_del2            =   3.3434461691472E-07
(PID.TID 0000.0001) %MON dynstat_vvel_max             =   4.4696834180529E-03
(PID.TID 0000.0001) %MON dynstat_vvel_min             =  -2.3620478812134E-03
(PID.TID 0000.0001) %MON dynstat_vvel_mean            =   1.4974751342569E-05
(PID.TID 0000.0001) %MON dynstat_vvel_sd              =   1.6134901732385E-04
(PID.TID 0000.0001) %MON dynstat_vvel_del2            =   3.6579965663801E-07
(PID.TID 0000.0001) %MON dynstat_wvel_max             =   1.4073163486732E-04
(PID.TID 0000.0001) %MON dynstat_wvel_min             =  -1.7368965290208E-04
(PID.TID 0000.0001) %MON dynstat_wvel_mean            =   6.6071694088935E-09
(PID.TID 0000.0001) %MON dynstat_wvel_sd              =   2.3740119968070E-05
(PID.TID 0000.0001) %MON dynstat_wvel_del2            =   1.0464226019276E-07
(PID.TID 0000.0001) %MON dynstat_theta_max            =   1.2000000000000E+00
(PID.TID 0000.0001) %MON dynstat_theta_min            =  -1.0000000000000E+00
(PID.TID 0000.0001) %MON dynstat_theta_mean           =   5.6902457644192E-01
(PID.TID 0000.0001) %MON dynstat_theta_sd             =   8.6854262015075E-01
(PID.TID 0000.0001) %MON dynstat_theta_del2           =   1.0662712845848E-06
(PID.TID 0000.0001) %MON dynstat_salt_max             =   3.4700000000000E+01
(PID.TID 0000.0001) %MON dynstat_salt_min             =   3.4000000000000E+01
(PID.TID 0000.0001) %MON dynstat_salt_mean            =   3.4499223976637E+01
(PID.TID 0000.0001) %MON dynstat_salt_sd              =   2.7635135170687E-01
(PID.TID 0000.0001) %MON dynstat_salt_del2            =   3.8844648376614E-07
(PID.TID 0000.0001) %MON advcfl_uvel_max              =   4.8204476006122E-04
(PID.TID 0000.0001) %MON advcfl_vvel_max              =   4.4696834180529E-04
(PID.TID 0000.0001) %MON advcfl_wvel_max              =   8.6844826451042E-04
(PID.TID 0000.0001) %MON advcfl_W_hf_max              =   8.6844826451042E-04
(PID.TID 0000.0001) %MON pe_b_mean                    =  -8.3213695079503E-01
(PID.TID 0000.0001) %MON ke_max                       =   7.2714453690967E-06
(PID.TID 0000.0001) %MON ke_mean                      =   3.2037965831856E-08
(PID.TID 0000.0001) %MON ke_vol                       =   4.2725205646845E+12
(PID.TID 0000.0001) // =======================================================
(PID.TID 0000.0001) // End MONITOR dynamic field statistics
(PID.TID 0000.0001) // =======================================================
(PID.TID 0000.0001) // =======================================================
(PID.TID 0000.0001) // Begin OBCS MONITOR field statistics
(PID.TID 0000.0001) // =======================================================
(PID.TID 0000.0001) %MON obc_N_vVel_max               =   1.4740654136507E-05
(PID.TID 0000.0001) %MON obc_N_vVel_min               =   1.4740654136506E-05
(PID.TID 0000.0001) %MON obc_N_vVel_mean              =   1.4740654136506E-05
(PID.TID 0000.0001) %MON obc_N_vVel_sd                =   4.1925634183339E-12
(PID.TID 0000.0001) %MON obc_N_vVel_Int               =   9.7288317300942E+02
(PID.TID 0000.0001) // =======================================================
(PID.TID 0000.0001) // End OBCS MONITOR field statistics
(PID.TID 0000.0001) // =======================================================
 cg2d: Sum(rhs),rhsMax =   4.52271757572961E+00  2.99892041831788E+02
(PID.TID 0000.0001)      cg2d_init_res =   6.11946286463072E-06
(PID.TID 0000.0001)      cg2d_iters(min,last) =      -1      77
(PID.TID 0000.0001)      cg2d_last_res =   9.56405633094994E-12
(PID.TID 0000.0001) // =======================================================
(PID.TID 0000.0001) // Begin MONITOR dynamic field statistics
(PID.TID 0000.0001) // =======================================================
(PID.TID 0000.0001) %MON time_tsnumber                =                   495
(PID.TID 0000.0001) %MON time_secondsf                =   4.9500000000000E+04
(PID.TID 0000.0001) %MON dynstat_eta_max              =   5.7912577493481E+00
(PID.TID 0000.0001) %MON dynstat_eta_min              =  -1.4199909268924E+01
(PID.TID 0000.0001) %MON dynstat_eta_mean             =  -2.5117166822483E+00
(PID.TID 0000.0001) %MON dynstat_eta_sd               =   4.9525857404144E+00
(PID.TID 0000.0001) %MON dynstat_eta_del2             =   2.0714148507028E-01
(PID.TID 0000.0001) %MON dynstat_uvel_max             =   1.4493364940028E-03
(PID.TID 0000.0001) %MON dynstat_uvel_min             =  -4.8356867343005E-03
(PID.TID 0000.0001) %MON dynstat_uvel_mean            =  -1.1866631634254E-07
(PID.TID 0000.0001) %MON dynstat_uvel_sd              =   1.9682228792903E-04
(PID.TID 0000.0001) %MON dynstat_uvel_del2            =   3.3476058241113E-07
(PID.TID 0000.0001) %MON dynstat_vvel_max             =   4.4796492542178E-03
(PID.TID 0000.0001) %MON dynstat_vvel_min             =  -2.3612582970216E-03
(PID.TID 0000.0001) %MON dynstat_vvel_mean            =   1.4973700054759E-05
(PID.TID 0000.0001) %MON dynstat_vvel_sd              =   1.6211282775624E-04
(PID.TID 0000.0001) %MON dynstat_vvel_del2            =   3.6696699016919E-07
(PID.TID 0000.0001) %MON dynstat_wvel_max             =   1.3745885075558E-04
(PID.TID 0000.0001) %MON dynstat_wvel_min             =  -1.7431589050812E-04
(PID.TID 0000.0001) %MON dynstat_wvel_mean            =   6.6034135972176E-09
(PID.TID 0000.0001) %MON dynstat_wvel_sd              =   2.4183026858133E-05
(PID.TID 0000.0001) %MON dynstat_wvel_del2            =   1.0555012928485E-07
(PID.TID 0000.0001) %MON dynstat_theta_max            =   1.2000000000000E+00
(PID.TID 0000.0001) %MON dynstat_theta_min            =  -1.0000000000000E+00
(PID.TID 0000.0001) %MON dynstat_theta_mean           =   5.6902425595502E-01
(PID.TID 0000.0001) %MON dynstat_theta_sd             =   8.6854244349231E-01
(PID.TID 0000.0001) %MON dynstat_theta_del2           =   1.0632025266940E-06
(PID.TID 0000.0001) %MON dynstat_salt_max             =   3.4700000000000E+01
(PID.TID 0000.0001) %MON dynstat_salt_min             =   3.4000000000000E+01
(PID.TID 0000.0001) %MON dynstat_salt_mean            =   3.4499223847982E+01
(PID.TID 0000.0001) %MON dynstat_salt_sd              =   2.7635128636854E-01
(PID.TID 0000.0001) %MON dynstat_salt_del2            =   3.8782062838092E-07
(PID.TID 0000.0001) %MON advcfl_uvel_max              =   4.8356867343005E-04
(PID.TID 0000.0001) %MON advcfl_vvel_max              =   4.4796492542178E-04
(PID.TID 0000.0001) %MON advcfl_wvel_max              =   8.7157945254062E-04
(PID.TID 0000.0001) %MON advcfl_W_hf_max              =   8.7157945254062E-04
(PID.TID 0000.0001) %MON pe_b_mean                    =  -8.3214084648467E-01
(PID.TID 0000.0001) %MON ke_max                       =   7.3146698983498E-06
(PID.TID 0000.0001) %MON ke_mean                      =   3.2236158060357E-08
(PID.TID 0000.0001) %MON ke_vol                       =   4.2725204837843E+12
(PID.TID 0000.0001) // =======================================================
(PID.TID 0000.0001) // End MONITOR dynamic field statistics
(PID.TID 0000.0001) // =======================================================
(PID.TID 0000.0001) // =======================================================
(PID.TID 0000.0001) // Begin OBCS MONITOR field statistics
(PID.TID 0000.0001) // =======================================================
(PID.TID 0000.0001) %MON obc_N_vVel_max               =   1.4740007385204E-05
(PID.TID 0000.0001) %MON obc_N_vVel_min               =   1.4740007385203E-05
(PID.TID 0000.0001) %MON obc_N_vVel_mean              =   1.4740007385203E-05
(PID.TID 0000.0001) %MON obc_N_vVel_sd                =   2.1268859807003E-12
(PID.TID 0000.0001) %MON obc_N_vVel_Int               =   9.7284048742341E+02
(PID.TID 0000.0001) // =======================================================
(PID.TID 0000.0001) // End OBCS MONITOR field statistics
(PID.TID 0000.0001) // =======================================================
 cg2d: Sum(rhs),rhsMax =   4.52274093674206E+00  2.99892117976544E+02
(PID.TID 0000.0001)      cg2d_init_res =   6.12270478529765E-06
(PID.TID 0000.0001)      cg2d_iters(min,last) =      -1      77
(PID.TID 0000.0001)      cg2d_last_res =   9.57135015212677E-12
(PID.TID 0000.0001) // =======================================================
(PID.TID 0000.0001) // Begin MONITOR dynamic field statistics
(PID.TID 0000.0001) // =======================================================
(PID.TID 0000.0001) %MON time_tsnumber                =                   496
(PID.TID 0000.0001) %MON time_secondsf                =   4.9600000000000E+04
(PID.TID 0000.0001) %MON dynstat_eta_max              =   5.7912244997553E+00
(PID.TID 0000.0001) %MON dynstat_eta_min              =  -1.4199932317530E+01
(PID.TID 0000.0001) %MON dynstat_eta_mean             =  -2.5117302936644E+00
(PID.TID 0000.0001) %MON dynstat_eta_sd               =   4.9525902598844E+00
(PID.TID 0000.0001) %MON dynstat_eta_del2             =   2.0714149395094E-01
(PID.TID 0000.0001) %MON dynstat_uvel_max             =   1.4413078620934E-03
(PID.TID 0000.0001) %MON dynstat_uvel_min             =  -4.8509583465650E-03
(PID.TID 0000.0001) %MON dynstat_uvel_mean            =  -1.1865027420252E-07
(PID.TID 0000.0001) %MON dynstat_uvel_sd              =   1.9720754219527E-04
(PID.TID 0000.0001) %MON dynstat_uvel_del2            =   3.3517933883329E-07
(PID.TID 0000.0001) %MON dynstat_vvel_max             =   4.4896161633319E-03
(PID.TID 0000.0001) %MON dynstat_vvel_min             =  -2.3604371633965E-03
(PID.TID 0000.0001) %MON dynstat_vvel_mean            =   1.4972345400402E-05
(PID.TID 0000.0001) %MON dynstat_vvel_sd              =   1.6284519782391E-04
(PID.TID 0000.0001) %MON dynstat_vvel_del2            =   3.6816062928384E-07
(PID.TID 0000.0001) %MON dynstat_wvel_max             =   1.4010924708756E-04
(PID.TID 0000.0001) %MON dynstat_wvel_min             =  -1.7494301833924E-04
(PID.TID 0000.0001) %MON dynstat_wvel_mean            =   6.5994767071158E-09
(PID.TID 0000.0001) %MON dynstat_wvel_sd              =   2.4606020498316E-05
(PID.TID 0000.0001) %MON dynstat_wvel_del2            =   1.0656632070531E-07
(PID.TID 0000.0001) %MON dynstat_theta_max            =   1.2000000000000E+00
(PID.TID 0000.0001) %MON dynstat_theta_min            =  -1.0000000000000E+00
(PID.TID 0000.0001) %MON dynstat_theta_mean           =   5.6902393504553E-01
(PID.TID 0000.0001) %MON dynstat_theta_sd             =   8.6854226657098E-01
(PID.TID 0000.0001) %MON dynstat_theta_del2           =   1.0599949304207E-06
(PID.TID 0000.0001) %MON dynstat_salt_max             =   3.4700000000000E+01
(PID.TID 0000.0001) %MON dynstat_salt_min             =   3.4000000000000E+01
(PID.TID 0000.0001) %MON dynstat_salt_mean            =   3.4499223719162E+01
(PID.TID 0000.0001) %MON dynstat_salt_sd              =   2.7635122092668E-01
(PID.TID 0000.0001) %MON dynstat_salt_del2            =   3.8715852967467E-07
(PID.TID 0000.0001) %MON advcfl_uvel_max              =   4.8509583465650E-04
(PID.TID 0000.0001) %MON advcfl_vvel_max              =   4.4896161633319E-04
(PID.TID 0000.0001) %MON advcfl_wvel_max              =   8.7471509169619E-04
(PID.TID 0000.0001) %MON advcfl_W_hf_max              =   8.7471509169619E-04
(PID.TID 0000.0001) %MON pe_b_mean                    =  -8.3214474067196E-01
(PID.TID 0000.0001) %MON ke_max                       =   7.3581266148195E-06
(PID.TID 0000.0001) %MON ke_mean                      =   3.2429519302808E-08
(PID.TID 0000.0001) %MON ke_vol                       =   4.2725204029074E+12
(PID.TID 0000.0001) // =======================================================
(PID.TID 0000.0001) // End MONITOR dynamic field statistics
(PID.TID 0000.0001) // =======================================================
(PID.TID 0000.0001) // =======================================================
(PID.TID 0000.0001) // Begin OBCS MONITOR field statistics
(PID.TID 0000.0001) // =======================================================
(PID.TID 0000.0001) %MON obc_N_vVel_max               =   1.4739088410216E-05
(PID.TID 0000.0001) %MON obc_N_vVel_min               =   1.4739088410216E-05
(PID.TID 0000.0001) %MON obc_N_vVel_mean              =   1.4739088410216E-05
(PID.TID 0000.0001) %MON obc_N_vVel_sd                =   3.3648231208073E-12
(PID.TID 0000.0001) %MON obc_N_vVel_Int               =   9.7277983507424E+02
(PID.TID 0000.0001) // =======================================================
(PID.TID 0000.0001) // End OBCS MONITOR field statistics
(PID.TID 0000.0001) // =======================================================
 cg2d: Sum(rhs),rhsMax =   4.52276429032821E+00  2.99892194078162E+02
(PID.TID 0000.0001)      cg2d_init_res =   6.12701543026312E-06
(PID.TID 0000.0001)      cg2d_iters(min,last) =      -1      77
(PID.TID 0000.0001)      cg2d_last_res =   9.58249492621436E-12
(PID.TID 0000.0001) // =======================================================
(PID.TID 0000.0001) // Begin MONITOR dynamic field statistics
(PID.TID 0000.0001) // =======================================================
(PID.TID 0000.0001) %MON time_tsnumber                =                   497
(PID.TID 0000.0001) %MON time_secondsf                =   4.9700000000000E+04
(PID.TID 0000.0001) %MON dynstat_eta_max              =   5.7911912539077E+00
(PID.TID 0000.0001) %MON dynstat_eta_min              =  -1.4199955359389E+01
(PID.TID 0000.0001) %MON dynstat_eta_mean             =  -2.5117439006016E+00
(PID.TID 0000.0001) %MON dynstat_eta_sd               =   4.9525947779930E+00
(PID.TID 0000.0001) %MON dynstat_eta_del2             =   2.0714150285467E-01
(PID.TID 0000.0001) %MON dynstat_uvel_max             =   1.4332466931773E-03
(PID.TID 0000.0001) %MON dynstat_uvel_min             =  -4.8662625731248E-03
(PID.TID 0000.0001) %MON dynstat_uvel_mean            =  -1.1863603827044E-07
(PID.TID 0000.0001) %MON dynstat_uvel_sd              =   1.9759075321532E-04
(PID.TID 0000.0001) %MON dynstat_uvel_del2            =   3.3560127993417E-07
(PID.TID 0000.0001) %MON dynstat_vvel_max             =   4.4995843378963E-03
(PID.TID 0000.0001) %MON dynstat_vvel_min             =  -2.3595846128508E-03
(PID.TID 0000.0001) %MON dynstat_vvel_mean            =   1.4970736515693E-05
(PID.TID 0000.0001) %MON dynstat_vvel_sd              =   1.6352668842876E-04
(PID.TID 0000.0001) %MON dynstat_vvel_del2            =   3.6934039557174E-07
(PID.TID 0000.0001) %MON dynstat_wvel_max             =   1.4793465384341E-04
(PID.TID 0000.0001) %MON dynstat_wvel_min             =  -1.7557104174664E-04
(PID.TID 0000.0001) %MON dynstat_wvel_mean            =   6.5954986029175E-09
(PID.TID 0000.0001) %MON dynstat_wvel_sd              =   2.4995035598429E-05
(PID.TID 0000.0001) %MON dynstat_wvel_del2            =   1.0765396712857E-07
(PID.TID 0000.0001) %MON dynstat_theta_max            =   1.2000000000000E+00
(PID.TID 0000.0001) %MON dynstat_theta_min            =  -1.0000000000000E+00
(PID.TID 0000.0001) %MON dynstat_theta_mean           =   5.6902361369519E-01
(PID.TID 0000.0001) %MON dynstat_theta_sd             =   8.6854208942441E-01
(PID.TID 0000.0001) %MON dynstat_theta_del2           =   1.0567582379143E-06
(PID.TID 0000.0001) %MON dynstat_salt_max             =   3.4700000000000E+01
(PID.TID 0000.0001) %MON dynstat_salt_min             =   3.4000000000000E+01
(PID.TID 0000.0001) %MON dynstat_salt_mean            =   3.4499223590170E+01
(PID.TID 0000.0001) %MON dynstat_salt_sd              =   2.7635115539332E-01
(PID.TID 0000.0001) %MON dynstat_salt_del2            =   3.8649072049239E-07
(PID.TID 0000.0001) %MON advcfl_uvel_max              =   4.8662625731248E-04
(PID.TID 0000.0001) %MON advcfl_vvel_max              =   4.4995843378963E-04
(PID.TID 0000.0001) %MON advcfl_wvel_max              =   8.7785520873318E-04
(PID.TID 0000.0001) %MON advcfl_W_hf_max              =   8.7785520873318E-04
(PID.TID 0000.0001) %MON pe_b_mean                    =  -8.3214863329842E-01
(PID.TID 0000.0001) %MON ke_max                       =   7.4018168917970E-06
(PID.TID 0000.0001) %MON ke_mean                      =   3.2614842124881E-08
(PID.TID 0000.0001) %MON ke_vol                       =   4.2725203220556E+12
(PID.TID 0000.0001) // =======================================================
(PID.TID 0000.0001) // End MONITOR dynamic field statistics
(PID.TID 0000.0001) // =======================================================
(PID.TID 0000.0001) // =======================================================
(PID.TID 0000.0001) // Begin OBCS MONITOR field statistics
(PID.TID 0000.0001) // =======================================================
(PID.TID 0000.0001) %MON obc_N_vVel_max               =   1.4737932306224E-05
(PID.TID 0000.0001) %MON obc_N_vVel_min               =   1.4737932306224E-05
(PID.TID 0000.0001) %MON obc_N_vVel_mean              =   1.4737932306224E-05
(PID.TID 0000.0001) %MON obc_N_vVel_sd                =  -1.3648480107125E-23
(PID.TID 0000.0001) %MON obc_N_vVel_Int               =   9.7270353221078E+02
(PID.TID 0000.0001) // =======================================================
(PID.TID 0000.0001) // End OBCS MONITOR field statistics
(PID.TID 0000.0001) // =======================================================
 cg2d: Sum(rhs),rhsMax =   4.52278763604096E+00  2.99892270141151E+02
(PID.TID 0000.0001)      cg2d_init_res =   6.13219269329095E-06
(PID.TID 0000.0001)      cg2d_iters(min,last) =      -1      77
(PID.TID 0000.0001)      cg2d_last_res =   9.59782504268688E-12
(PID.TID 0000.0001) // =======================================================
(PID.TID 0000.0001) // Begin MONITOR dynamic field statistics
(PID.TID 0000.0001) // =======================================================
(PID.TID 0000.0001) %MON time_tsnumber                =                   498
(PID.TID 0000.0001) %MON time_secondsf                =   4.9800000000000E+04
(PID.TID 0000.0001) %MON dynstat_eta_max              =   5.7911580118917E+00
(PID.TID 0000.0001) %MON dynstat_eta_min              =  -1.4199978394393E+01
(PID.TID 0000.0001) %MON dynstat_eta_mean             =  -2.5117575028494E+00
(PID.TID 0000.0001) %MON dynstat_eta_sd               =   4.9525992947151E+00
(PID.TID 0000.0001) %MON dynstat_eta_del2             =   2.0714151178155E-01
(PID.TID 0000.0001) %MON dynstat_uvel_max             =   1.4251536018772E-03
(PID.TID 0000.0001) %MON dynstat_uvel_min             =  -4.8815995498979E-03
(PID.TID 0000.0001) %MON dynstat_uvel_mean            =  -1.1862413638303E-07
(PID.TID 0000.0001) %MON dynstat_uvel_sd              =   1.9797213014734E-04
(PID.TID 0000.0001) %MON dynstat_uvel_del2            =   3.3602676097457E-07
(PID.TID 0000.0001) %MON dynstat_vvel_max             =   4.5095539740930E-03
(PID.TID 0000.0001) %MON dynstat_vvel_min             =  -2.3587007721222E-03
(PID.TID 0000.0001) %MON dynstat_vvel_mean            =   1.4968930662186E-05
(PID.TID 0000.0001) %MON dynstat_vvel_sd              =   1.6413946600124E-04
(PID.TID 0000.0001) %MON dynstat_vvel_del2            =   3.7046425304074E-07
(PID.TID 0000.0001) %MON dynstat_wvel_max             =   1.5549838195277E-04
(PID.TID 0000.0001) %MON dynstat_wvel_min             =  -1.8015373955434E-04
(PID.TID 0000.0001) %MON dynstat_wvel_mean            =   6.5916198238633E-09
(PID.TID 0000.0001) %MON dynstat_wvel_sd              =   2.5337049005584E-05
(PID.TID 0000.0001) %MON dynstat_wvel_del2            =   1.0877178921441E-07
(PID.TID 0000.0001) %MON dynstat_theta_max            =   1.2000000000000E+00
(PID.TID 0000.0001) %MON dynstat_theta_min            =  -1.0000000000000E+00
(PID.TID 0000.0001) %MON dynstat_theta_mean           =   5.6902329188566E-01
(PID.TID 0000.0001) %MON dynstat_theta_sd             =   8.6854191207721E-01
(PID.TID 0000.0001) %MON dynstat_theta_del2           =   1.0536086155850E-06
(PID.TID 0000.0001) %MON dynstat_salt_max             =   3.4700000000000E+01
(PID.TID 0000.0001) %MON dynstat_salt_min             =   3.4000000000000E+01
(PID.TID 0000.0001) %MON dynstat_salt_mean            =   3.4499223461001E+01
(PID.TID 0000.0001) %MON dynstat_salt_sd              =   2.7635108977639E-01
(PID.TID 0000.0001) %MON dynstat_salt_del2            =   3.8584941530481E-07
(PID.TID 0000.0001) %MON advcfl_uvel_max              =   4.8815995498979E-04
(PID.TID 0000.0001) %MON advcfl_vvel_max              =   4.5095539740930E-04
(PID.TID 0000.0001) %MON advcfl_wvel_max              =   9.0076869777171E-04
(PID.TID 0000.0001) %MON advcfl_W_hf_max              =   9.0076869777171E-04
(PID.TID 0000.0001) %MON pe_b_mean                    =  -8.3215252431996E-01
(PID.TID 0000.0001) %MON ke_max                       =   7.4457421115221E-06
(PID.TID 0000.0001) %MON ke_mean                      =   3.2789134558394E-08
(PID.TID 0000.0001) %MON ke_vol                       =   4.2725202412304E+12
(PID.TID 0000.0001) // =======================================================
(PID.TID 0000.0001) // End MONITOR dynamic field statistics
(PID.TID 0000.0001) // =======================================================
(PID.TID 0000.0001) // =======================================================
(PID.TID 0000.0001) // Begin OBCS MONITOR field statistics
(PID.TID 0000.0001) // =======================================================
(PID.TID 0000.0001) %MON obc_N_vVel_max               =   1.4736581737998E-05
(PID.TID 0000.0001) %MON obc_N_vVel_min               =   1.4736581737997E-05
(PID.TID 0000.0001) %MON obc_N_vVel_mean              =   1.4736581737998E-05
(PID.TID 0000.0001) %MON obc_N_vVel_sd                =  -8.8663421908028E-24
(PID.TID 0000.0001) %MON obc_N_vVel_Int               =   9.7261439470784E+02
(PID.TID 0000.0001) // =======================================================
(PID.TID 0000.0001) // End OBCS MONITOR field statistics
(PID.TID 0000.0001) // =======================================================
 cg2d: Sum(rhs),rhsMax =   4.52281097352300E+00  2.99892346170323E+02
(PID.TID 0000.0001)      cg2d_init_res =   6.13797702251219E-06
(PID.TID 0000.0001)      cg2d_iters(min,last) =      -1      77
(PID.TID 0000.0001)      cg2d_last_res =   9.61694214988601E-12
(PID.TID 0000.0001) // =======================================================
(PID.TID 0000.0001) // Begin MONITOR dynamic field statistics
(PID.TID 0000.0001) // =======================================================
(PID.TID 0000.0001) %MON time_tsnumber                =                   499
(PID.TID 0000.0001) %MON time_secondsf                =   4.9900000000000E+04
(PID.TID 0000.0001) %MON dynstat_eta_max              =   5.7911457976820E+00
(PID.TID 0000.0001) %MON dynstat_eta_min              =  -1.4200001422539E+01
(PID.TID 0000.0001) %MON dynstat_eta_mean             =  -2.5117711002494E+00
(PID.TID 0000.0001) %MON dynstat_eta_sd               =   4.9526038100480E+00
(PID.TID 0000.0001) %MON dynstat_eta_del2             =   2.0714152073177E-01
(PID.TID 0000.0001) %MON dynstat_uvel_max             =   1.4170292002821E-03
(PID.TID 0000.0001) %MON dynstat_uvel_min             =  -4.8969694130712E-03
(PID.TID 0000.0001) %MON dynstat_uvel_mean            =  -1.1861499812033E-07
(PID.TID 0000.0001) %MON dynstat_uvel_sd              =   1.9835186870523E-04
(PID.TID 0000.0001) %MON dynstat_uvel_del2            =   3.3645608794727E-07
(PID.TID 0000.0001) %MON dynstat_vvel_max             =   4.5195252708407E-03
(PID.TID 0000.0001) %MON dynstat_vvel_min             =  -2.3577857640902E-03
(PID.TID 0000.0001) %MON dynstat_vvel_mean            =   1.4966991204771E-05
(PID.TID 0000.0001) %MON dynstat_vvel_sd              =   1.6466784689574E-04
(PID.TID 0000.0001) %MON dynstat_vvel_del2            =   3.7148965685299E-07
(PID.TID 0000.0001) %MON dynstat_wvel_max             =   1.6201084265583E-04
(PID.TID 0000.0001) %MON dynstat_wvel_min             =  -1.8646171200589E-04
(PID.TID 0000.0001) %MON dynstat_wvel_mean            =   6.5879757424311E-09
(PID.TID 0000.0001) %MON dynstat_wvel_sd              =   2.5620314235285E-05
(PID.TID 0000.0001) %MON dynstat_wvel_del2            =   1.0987544598372E-07
(PID.TID 0000.0001) %MON dynstat_theta_max            =   1.2000000000000E+00
(PID.TID 0000.0001) %MON dynstat_theta_min            =  -1.0000000000000E+00
(PID.TID 0000.0001) %MON dynstat_theta_mean           =   5.6902296959856E-01
(PID.TID 0000.0001) %MON dynstat_theta_sd             =   8.6854173457053E-01
(PID.TID 0000.0001) %MON dynstat_theta_del2           =   1.0506648365054E-06
(PID.TID 0000.0001) %MON dynstat_salt_max             =   3.4700000000000E+01
(PID.TID 0000.0001) %MON dynstat_salt_min             =   3.4000000000000E+01
(PID.TID 0000.0001) %MON dynstat_salt_mean            =   3.4499223331648E+01
(PID.TID 0000.0001) %MON dynstat_salt_sd              =   2.7635102408897E-01
(PID.TID 0000.0001) %MON dynstat_salt_del2            =   3.8526718969668E-07
(PID.TID 0000.0001) %MON advcfl_uvel_max              =   4.8969694130712E-04
(PID.TID 0000.0001) %MON advcfl_vvel_max              =   4.5195252708407E-04
(PID.TID 0000.0001) %MON advcfl_wvel_max              =   9.3230856002943E-04
(PID.TID 0000.0001) %MON advcfl_W_hf_max              =   9.3230856002943E-04
(PID.TID 0000.0001) %MON pe_b_mean                    =  -8.3215641370803E-01
(PID.TID 0000.0001) %MON ke_max                       =   7.4899036651132E-06
(PID.TID 0000.0001) %MON ke_mean                      =   3.2949724747520E-08
(PID.TID 0000.0001) %MON ke_vol                       =   4.2725201604331E+12
(PID.TID 0000.0001) // =======================================================
(PID.TID 0000.0001) // End MONITOR dynamic field statistics
(PID.TID 0000.0001) // =======================================================
(PID.TID 0000.0001) // =======================================================
(PID.TID 0000.0001) // Begin OBCS MONITOR field statistics
(PID.TID 0000.0001) // =======================================================
(PID.TID 0000.0001) %MON obc_N_vVel_max               =   1.4735085545031E-05
(PID.TID 0000.0001) %MON obc_N_vVel_min               =   1.4735085545030E-05
(PID.TID 0000.0001) %MON obc_N_vVel_mean              =   1.4735085545030E-05
(PID.TID 0000.0001) %MON obc_N_vVel_sd                =   4.2202171228543E-12
(PID.TID 0000.0001) %MON obc_N_vVel_Int               =   9.7251564597201E+02
(PID.TID 0000.0001) // =======================================================
(PID.TID 0000.0001) // End OBCS MONITOR field statistics
(PID.TID 0000.0001) // =======================================================
 cg2d: Sum(rhs),rhsMax =   4.52283430252348E+00  2.99892422170642E+02
(PID.TID 0000.0001)      cg2d_init_res =   6.14404129407617E-06
(PID.TID 0000.0001)      cg2d_iters(min,last) =      -1      77
(PID.TID 0000.0001)      cg2d_last_res =   9.63925399330521E-12
(PID.TID 0000.0001) // =======================================================
(PID.TID 0000.0001) // Begin MONITOR dynamic field statistics
(PID.TID 0000.0001) // =======================================================
(PID.TID 0000.0001) %MON time_tsnumber                =                   500
(PID.TID 0000.0001) %MON time_secondsf                =   5.0000000000000E+04
(PID.TID 0000.0001) %MON dynstat_eta_max              =   5.7911349927837E+00
(PID.TID 0000.0001) %MON dynstat_eta_min              =  -1.4200024443927E+01
(PID.TID 0000.0001) %MON dynstat_eta_mean             =  -2.5117846927041E+00
(PID.TID 0000.0001) %MON dynstat_eta_sd               =   4.9526083240087E+00
(PID.TID 0000.0001) %MON dynstat_eta_del2             =   2.0714152970528E-01
(PID.TID 0000.0001) %MON dynstat_uvel_max             =   1.4088740981275E-03
(PID.TID 0000.0001) %MON dynstat_uvel_min             =  -4.9123722987714E-03
(PID.TID 0000.0001) %MON dynstat_uvel_mean            =  -1.1860893439901E-07
(PID.TID 0000.0001) %MON dynstat_uvel_sd              =   1.9873014699752E-04
(PID.TID 0000.0001) %MON dynstat_uvel_del2            =   3.3688950666722E-07
(PID.TID 0000.0001) %MON dynstat_vvel_max             =   4.5294984289777E-03
(PID.TID 0000.0001) %MON dynstat_vvel_min             =  -2.3568397097851E-03
(PID.TID 0000.0001) %MON dynstat_vvel_mean            =   1.4964985450903E-05
(PID.TID 0000.0001) %MON dynstat_vvel_sd              =   1.6509878515672E-04
(PID.TID 0000.0001) %MON dynstat_vvel_del2            =   3.7237505756719E-07
(PID.TID 0000.0001) %MON dynstat_wvel_max             =   1.6795307627762E-04
(PID.TID 0000.0001) %MON dynstat_wvel_min             =  -1.9117621789687E-04
(PID.TID 0000.0001) %MON dynstat_wvel_mean            =   6.5846924753120E-09
(PID.TID 0000.0001) %MON dynstat_wvel_sd              =   2.5834559670614E-05
(PID.TID 0000.0001) %MON dynstat_wvel_del2            =   1.1091905289631E-07
(PID.TID 0000.0001) %MON dynstat_theta_max            =   1.2000000000000E+00
(PID.TID 0000.0001) %MON dynstat_theta_min            =  -1.0000000000000E+00
(PID.TID 0000.0001) %MON dynstat_theta_mean           =   5.6902264681592E-01
(PID.TID 0000.0001) %MON dynstat_theta_sd             =   8.6854155693636E-01
(PID.TID 0000.0001) %MON dynstat_theta_del2           =   1.0480443759832E-06
(PID.TID 0000.0001) %MON dynstat_salt_max             =   3.4700000000000E+01
(PID.TID 0000.0001) %MON dynstat_salt_min             =   3.4000000000000E+01
(PID.TID 0000.0001) %MON dynstat_salt_mean            =   3.4499223202107E+01
(PID.TID 0000.0001) %MON dynstat_salt_sd              =   2.7635095834122E-01
(PID.TID 0000.0001) %MON dynstat_salt_del2            =   3.8477623368591E-07
(PID.TID 0000.0001) %MON advcfl_uvel_max              =   4.9123722987714E-04
(PID.TID 0000.0001) %MON advcfl_vvel_max              =   4.5294984289777E-04
(PID.TID 0000.0001) %MON advcfl_wvel_max              =   9.5588108948437E-04
(PID.TID 0000.0001) %MON advcfl_W_hf_max              =   9.5588108948437E-04
(PID.TID 0000.0001) %MON pe_b_mean                    =  -8.3216030145140E-01
(PID.TID 0000.0001) %MON ke_max                       =   7.5343029512761E-06
(PID.TID 0000.0001) %MON ke_mean                      =   3.3094359022895E-08
(PID.TID 0000.0001) %MON ke_vol                       =   4.2725200796645E+12
(PID.TID 0000.0001) // =======================================================
(PID.TID 0000.0001) // End MONITOR dynamic field statistics
(PID.TID 0000.0001) // =======================================================
(PID.TID 0000.0001) // =======================================================
(PID.TID 0000.0001) // Begin OBCS MONITOR field statistics
(PID.TID 0000.0001) // =======================================================
(PID.TID 0000.0001) %MON obc_N_vVel_max               =   1.4733497021105E-05
(PID.TID 0000.0001) %MON obc_N_vVel_min               =   1.4733497021104E-05
(PID.TID 0000.0001) %MON obc_N_vVel_mean              =   1.4733497021104E-05
(PID.TID 0000.0001) %MON obc_N_vVel_sd                =   4.9004170392100E-12
(PID.TID 0000.0001) %MON obc_N_vVel_Int               =   9.7241080339287E+02
(PID.TID 0000.0001) // =======================================================
(PID.TID 0000.0001) // End OBCS MONITOR field statistics
(PID.TID 0000.0001) // =======================================================
 cg2d: Sum(rhs),rhsMax =   4.52285762290109E+00  2.99892498147051E+02
(PID.TID 0000.0001)      cg2d_init_res =   6.15002230787542E-06
(PID.TID 0000.0001)      cg2d_iters(min,last) =      -1      77
(PID.TID 0000.0001)      cg2d_last_res =   9.66386389981918E-12
(PID.TID 0000.0001) // =======================================================
(PID.TID 0000.0001) // Begin MONITOR dynamic field statistics
(PID.TID 0000.0001) // =======================================================
(PID.TID 0000.0001) %MON time_tsnumber                =                   501
(PID.TID 0000.0001) %MON time_secondsf                =   5.0100000000000E+04
(PID.TID 0000.0001) %MON dynstat_eta_max              =   5.7911242097849E+00
(PID.TID 0000.0001) %MON dynstat_eta_min              =  -1.4200047458756E+01
(PID.TID 0000.0001) %MON dynstat_eta_mean             =  -2.5117982801764E+00
(PID.TID 0000.0001) %MON dynstat_eta_sd               =   4.9526128366373E+00
(PID.TID 0000.0001) %MON dynstat_eta_del2             =   2.0714153870202E-01
(PID.TID 0000.0001) %MON dynstat_uvel_max             =   1.4006889028057E-03
(PID.TID 0000.0001) %MON dynstat_uvel_min             =  -4.9278083429751E-03
(PID.TID 0000.0001) %MON dynstat_uvel_mean            =  -1.1860615350327E-07
(PID.TID 0000.0001) %MON dynstat_uvel_sd              =   1.9910712223274E-04
(PID.TID 0000.0001) %MON dynstat_uvel_del2            =   3.3732719558370E-07
(PID.TID 0000.0001) %MON dynstat_vvel_max             =   4.5394736504733E-03
(PID.TID 0000.0001) %MON dynstat_vvel_min             =  -2.3558627305906E-03
(PID.TID 0000.0001) %MON dynstat_vvel_mean            =   1.4962982333038E-05
(PID.TID 0000.0001) %MON dynstat_vvel_sd              =   1.6542229359528E-04
(PID.TID 0000.0001) %MON dynstat_vvel_del2            =   3.7308152238676E-07
(PID.TID 0000.0001) %MON dynstat_wvel_max             =   1.7287993144937E-04
(PID.TID 0000.0001) %MON dynstat_wvel_min             =  -1.9425397339067E-04
(PID.TID 0000.0001) %MON dynstat_wvel_mean            =   6.5818819401494E-09
(PID.TID 0000.0001) %MON dynstat_wvel_sd              =   2.5971163926111E-05
(PID.TID 0000.0001) %MON dynstat_wvel_del2            =   1.1185680030798E-07
(PID.TID 0000.0001) %MON dynstat_theta_max            =   1.2000000000000E+00
(PID.TID 0000.0001) %MON dynstat_theta_min            =  -1.0000000000000E+00
(PID.TID 0000.0001) %MON dynstat_theta_mean           =   5.6902232352004E-01
(PID.TID 0000.0001) %MON dynstat_theta_sd             =   8.6854137915439E-01
(PID.TID 0000.0001) %MON dynstat_theta_del2           =   1.0458584436838E-06
(PID.TID 0000.0001) %MON dynstat_salt_max             =   3.4700000000000E+01
(PID.TID 0000.0001) %MON dynstat_salt_min             =   3.4000000000000E+01
(PID.TID 0000.0001) %MON dynstat_salt_mean            =   3.4499223072370E+01
(PID.TID 0000.0001) %MON dynstat_salt_sd              =   2.7635089252662E-01
(PID.TID 0000.0001) %MON dynstat_salt_del2            =   3.8440685369677E-07
(PID.TID 0000.0001) %MON advcfl_uvel_max              =   4.9278083429751E-04
(PID.TID 0000.0001) %MON advcfl_vvel_max              =   4.5394736504733E-04
(PID.TID 0000.0001) %MON advcfl_wvel_max              =   9.7126986695334E-04
(PID.TID 0000.0001) %MON advcfl_W_hf_max              =   9.7126986695334E-04
(PID.TID 0000.0001) %MON pe_b_mean                    =  -8.3216418755555E-01
(PID.TID 0000.0001) %MON ke_max                       =   7.5789413754092E-06
(PID.TID 0000.0001) %MON ke_mean                      =   3.3221289494456E-08
(PID.TID 0000.0001) %MON ke_vol                       =   4.2725199989253E+12
(PID.TID 0000.0001) // =======================================================
(PID.TID 0000.0001) // End MONITOR dynamic field statistics
(PID.TID 0000.0001) // =======================================================
(PID.TID 0000.0001) // =======================================================
(PID.TID 0000.0001) // Begin OBCS MONITOR field statistics
(PID.TID 0000.0001) // =======================================================
(PID.TID 0000.0001) %MON obc_N_vVel_max               =   1.4731872039065E-05
(PID.TID 0000.0001) %MON obc_N_vVel_min               =   1.4731872039064E-05
(PID.TID 0000.0001) %MON obc_N_vVel_mean              =   1.4731872039064E-05
(PID.TID 0000.0001) %MON obc_N_vVel_sd                =   2.6613406386604E-12
(PID.TID 0000.0001) %MON obc_N_vVel_Int               =   9.7230355457825E+02
(PID.TID 0000.0001) // =======================================================
(PID.TID 0000.0001) // End OBCS MONITOR field statistics
(PID.TID 0000.0001) // =======================================================
 cg2d: Sum(rhs),rhsMax =   4.52288093462725E+00  2.99892574104315E+02
(PID.TID 0000.0001)      cg2d_init_res =   6.15553285484604E-06
(PID.TID 0000.0001)      cg2d_iters(min,last) =      -1      77
(PID.TID 0000.0001)      cg2d_last_res =   9.68945365202412E-12
(PID.TID 0000.0001) // =======================================================
(PID.TID 0000.0001) // Begin MONITOR dynamic field statistics
(PID.TID 0000.0001) // =======================================================
(PID.TID 0000.0001) %MON time_tsnumber                =                   502
(PID.TID 0000.0001) %MON time_secondsf                =   5.0200000000000E+04
(PID.TID 0000.0001) %MON dynstat_eta_max              =   5.7911134484936E+00
(PID.TID 0000.0001) %MON dynstat_eta_min              =  -1.4200070467329E+01
(PID.TID 0000.0001) %MON dynstat_eta_mean             =  -2.5118118626902E+00
(PID.TID 0000.0001) %MON dynstat_eta_sd               =   4.9526173479925E+00
(PID.TID 0000.0001) %MON dynstat_eta_del2             =   2.0714154772191E-01
(PID.TID 0000.0001) %MON dynstat_uvel_max             =   1.4035011174025E-03
(PID.TID 0000.0001) %MON dynstat_uvel_min             =  -4.9432776813241E-03
(PID.TID 0000.0001) %MON dynstat_uvel_mean            =  -1.1860674279313E-07
(PID.TID 0000.0001) %MON dynstat_uvel_sd              =   1.9948292829008E-04
(PID.TID 0000.0001) %MON dynstat_uvel_del2            =   3.3776925973962E-07
(PID.TID 0000.0001) %MON dynstat_vvel_max             =   4.5494511375492E-03
(PID.TID 0000.0001) %MON dynstat_vvel_min             =  -2.3548549502994E-03
(PID.TID 0000.0001) %MON dynstat_vvel_mean            =   1.4961050020109E-05
(PID.TID 0000.0001) %MON dynstat_vvel_sd              =   1.6563179021565E-04
(PID.TID 0000.0001) %MON dynstat_vvel_del2            =   3.7357441672772E-07
(PID.TID 0000.0001) %MON dynstat_wvel_max             =   1.7680306044142E-04
(PID.TID 0000.0001) %MON dynstat_wvel_min             =  -1.9566964310928E-04
(PID.TID 0000.0001) %MON dynstat_wvel_mean            =   6.5796387101681E-09
(PID.TID 0000.0001) %MON dynstat_wvel_sd              =   2.6023319220960E-05
(PID.TID 0000.0001) %MON dynstat_wvel_del2            =   1.1264460617388E-07
(PID.TID 0000.0001) %MON dynstat_theta_max            =   1.2000000000000E+00
(PID.TID 0000.0001) %MON dynstat_theta_min            =  -1.0000000000000E+00
(PID.TID 0000.0001) %MON dynstat_theta_mean           =   5.6902199969362E-01
(PID.TID 0000.0001) %MON dynstat_theta_sd             =   8.6854120118848E-01
(PID.TID 0000.0001) %MON dynstat_theta_del2           =   1.0442068770044E-06
(PID.TID 0000.0001) %MON dynstat_salt_max             =   3.4700000000000E+01
(PID.TID 0000.0001) %MON dynstat_salt_min             =   3.4000000000000E+01
(PID.TID 0000.0001) %MON dynstat_salt_mean            =   3.4499222942434E+01
(PID.TID 0000.0001) %MON dynstat_salt_sd              =   2.7635082663377E-01
(PID.TID 0000.0001) %MON dynstat_salt_del2            =   3.8418613406339E-07
(PID.TID 0000.0001) %MON advcfl_uvel_max              =   4.9432776813241E-04
(PID.TID 0000.0001) %MON advcfl_vvel_max              =   4.5494511375492E-04
(PID.TID 0000.0001) %MON advcfl_wvel_max              =   9.7834821554641E-04
(PID.TID 0000.0001) %MON advcfl_W_hf_max              =   9.7834821554641E-04
(PID.TID 0000.0001) %MON pe_b_mean                    =  -8.3216807204242E-01
(PID.TID 0000.0001) %MON ke_max                       =   7.6238203487687E-06
(PID.TID 0000.0001) %MON ke_mean                      =   3.3329347540613E-08
(PID.TID 0000.0001) %MON ke_vol                       =   4.2725199182158E+12
(PID.TID 0000.0001) // =======================================================
(PID.TID 0000.0001) // End MONITOR dynamic field statistics
(PID.TID 0000.0001) // =======================================================
(PID.TID 0000.0001) // =======================================================
(PID.TID 0000.0001) // Begin OBCS MONITOR field statistics
(PID.TID 0000.0001) // =======================================================
(PID.TID 0000.0001) %MON obc_N_vVel_max               =   1.4730267131689E-05
(PID.TID 0000.0001) %MON obc_N_vVel_min               =   1.4730267131688E-05
(PID.TID 0000.0001) %MON obc_N_vVel_mean              =   1.4730267131688E-05
(PID.TID 0000.0001) %MON obc_N_vVel_sd                =   3.7464944974281E-12
(PID.TID 0000.0001) %MON obc_N_vVel_Int               =   9.7219763069144E+02
(PID.TID 0000.0001) // =======================================================
(PID.TID 0000.0001) // End OBCS MONITOR field statistics
(PID.TID 0000.0001) // =======================================================
 cg2d: Sum(rhs),rhsMax =   4.52290423778966E+00  2.99892650046926E+02
(PID.TID 0000.0001)      cg2d_init_res =   6.16017898570092E-06
(PID.TID 0000.0001)      cg2d_iters(min,last) =      -1      77
(PID.TID 0000.0001)      cg2d_last_res =   9.71429075634242E-12
(PID.TID 0000.0001) // =======================================================
(PID.TID 0000.0001) // Begin MONITOR dynamic field statistics
(PID.TID 0000.0001) // =======================================================
(PID.TID 0000.0001) %MON time_tsnumber                =                   503
(PID.TID 0000.0001) %MON time_secondsf                =   5.0300000000000E+04
(PID.TID 0000.0001) %MON dynstat_eta_max              =   5.7911027085670E+00
(PID.TID 0000.0001) %MON dynstat_eta_min              =  -1.4200093470042E+01
(PID.TID 0000.0001) %MON dynstat_eta_mean             =  -2.5118254403319E+00
(PID.TID 0000.0001) %MON dynstat_eta_sd               =   4.9526218581534E+00
(PID.TID 0000.0001) %MON dynstat_eta_del2             =   2.0714155676510E-01
(PID.TID 0000.0001) %MON dynstat_uvel_max             =   1.4065286192757E-03
(PID.TID 0000.0001) %MON dynstat_uvel_min             =  -4.9587804488151E-03
(PID.TID 0000.0001) %MON dynstat_uvel_mean            =  -1.1861065092371E-07
(PID.TID 0000.0001) %MON dynstat_uvel_sd              =   1.9985767429889E-04
(PID.TID 0000.0001) %MON dynstat_uvel_del2            =   3.3821572808545E-07
(PID.TID 0000.0001) %MON dynstat_vvel_max             =   4.5594310915809E-03
(PID.TID 0000.0001) %MON dynstat_vvel_min             =  -2.3538164973100E-03
(PID.TID 0000.0001) %MON dynstat_vvel_mean            =   1.4959253610358E-05
(PID.TID 0000.0001) %MON dynstat_vvel_sd              =   1.6572436186152E-04
(PID.TID 0000.0001) %MON dynstat_vvel_del2            =   3.7382507553482E-07
(PID.TID 0000.0001) %MON dynstat_wvel_max             =   1.7991574882843E-04
(PID.TID 0000.0001) %MON dynstat_wvel_min             =  -1.9541627032491E-04
(PID.TID 0000.0001) %MON dynstat_wvel_mean            =   6.5780373562567E-09
(PID.TID 0000.0001) %MON dynstat_wvel_sd              =   2.5986190695210E-05
(PID.TID 0000.0001) %MON dynstat_wvel_del2            =   1.1324173789628E-07
(PID.TID 0000.0001) %MON dynstat_theta_max            =   1.2000000000000E+00
(PID.TID 0000.0001) %MON dynstat_theta_min            =  -1.0000000000000E+00
(PID.TID 0000.0001) %MON dynstat_theta_mean           =   5.6902167532019E-01
(PID.TID 0000.0001) %MON dynstat_theta_sd             =   8.6854102303337E-01
(PID.TID 0000.0001) %MON dynstat_theta_del2           =   1.0431737474662E-06
(PID.TID 0000.0001) %MON dynstat_salt_max             =   3.4700000000000E+01
(PID.TID 0000.0001) %MON dynstat_salt_min             =   3.4000000000000E+01
(PID.TID 0000.0001) %MON dynstat_salt_mean            =   3.4499222812292E+01
(PID.TID 0000.0001) %MON dynstat_salt_sd              =   2.7635076066116E-01
(PID.TID 0000.0001) %MON dynstat_salt_del2            =   3.8413668837191E-07
(PID.TID 0000.0001) %MON advcfl_uvel_max              =   4.9587804488151E-04
(PID.TID 0000.0001) %MON advcfl_vvel_max              =   4.5594310915809E-04
(PID.TID 0000.0001) %MON advcfl_wvel_max              =   9.7708135162457E-04
(PID.TID 0000.0001) %MON advcfl_W_hf_max              =   9.7708135162457E-04
(PID.TID 0000.0001) %MON pe_b_mean                    =  -8.3217195495024E-01
(PID.TID 0000.0001) %MON ke_max                       =   7.6689412868238E-06
(PID.TID 0000.0001) %MON ke_mean                      =   3.3417999823075E-08
(PID.TID 0000.0001) %MON ke_vol                       =   4.2725198375356E+12
(PID.TID 0000.0001) // =======================================================
(PID.TID 0000.0001) // End MONITOR dynamic field statistics
(PID.TID 0000.0001) // =======================================================
(PID.TID 0000.0001) // =======================================================
(PID.TID 0000.0001) // Begin OBCS MONITOR field statistics
(PID.TID 0000.0001) // =======================================================
(PID.TID 0000.0001) %MON obc_N_vVel_max               =   1.4728737527540E-05
(PID.TID 0000.0001) %MON obc_N_vVel_min               =   1.4728737527539E-05
(PID.TID 0000.0001) %MON obc_N_vVel_mean              =   1.4728737527540E-05
(PID.TID 0000.0001) %MON obc_N_vVel_sd                =  -1.0339757656913E-23
(PID.TID 0000.0001) %MON obc_N_vVel_Int               =   9.7209667681762E+02
(PID.TID 0000.0001) // =======================================================
(PID.TID 0000.0001) // End OBCS MONITOR field statistics
(PID.TID 0000.0001) // =======================================================
 cg2d: Sum(rhs),rhsMax =   4.52292753258808E+00  2.99892725978937E+02
(PID.TID 0000.0001)      cg2d_init_res =   6.16357606691960E-06
(PID.TID 0000.0001)      cg2d_iters(min,last) =      -1      77
(PID.TID 0000.0001)      cg2d_last_res =   9.73681129731154E-12
(PID.TID 0000.0001) // =======================================================
(PID.TID 0000.0001) // Begin MONITOR dynamic field statistics
(PID.TID 0000.0001) // =======================================================
(PID.TID 0000.0001) %MON time_tsnumber                =                   504
(PID.TID 0000.0001) %MON time_secondsf                =   5.0400000000000E+04
(PID.TID 0000.0001) %MON dynstat_eta_max              =   5.7910919895154E+00
(PID.TID 0000.0001) %MON dynstat_eta_min              =  -1.4200116467383E+01
(PID.TID 0000.0001) %MON dynstat_eta_mean             =  -2.5118390132463E+00
(PID.TID 0000.0001) %MON dynstat_eta_sd               =   4.9526263672113E+00
(PID.TID 0000.0001) %MON dynstat_eta_del2             =   2.0714156583165E-01
(PID.TID 0000.0001) %MON dynstat_uvel_max             =   1.4095488591703E-03
(PID.TID 0000.0001) %MON dynstat_uvel_min             =  -4.9743167798786E-03
(PID.TID 0000.0001) %MON dynstat_uvel_mean            =  -1.1861765484203E-07
(PID.TID 0000.0001) %MON dynstat_uvel_sd              =   2.0023144419424E-04
(PID.TID 0000.0001) %MON dynstat_uvel_del2            =   3.3866655267461E-07
(PID.TID 0000.0001) %MON dynstat_vvel_max             =   4.5694137125705E-03
(PID.TID 0000.0001) %MON dynstat_vvel_min             =  -2.3527475066043E-03
(PID.TID 0000.0001) %MON dynstat_vvel_mean            =   1.4957653058551E-05
(PID.TID 0000.0001) %MON dynstat_vvel_sd              =   1.6570093583249E-04
(PID.TID 0000.0001) %MON dynstat_vvel_del2            =   3.7381238722233E-07
(PID.TID 0000.0001) %MON dynstat_wvel_max             =   1.8170621478877E-04
(PID.TID 0000.0001) %MON dynstat_wvel_min             =  -1.9350545667486E-04
(PID.TID 0000.0001) %MON dynstat_wvel_mean            =   6.5771303481924E-09
(PID.TID 0000.0001) %MON dynstat_wvel_sd              =   2.5857075964091E-05
(PID.TID 0000.0001) %MON dynstat_wvel_del2            =   1.1361235175594E-07
(PID.TID 0000.0001) %MON dynstat_theta_max            =   1.2000000000000E+00
(PID.TID 0000.0001) %MON dynstat_theta_min            =  -1.0000000000000E+00
(PID.TID 0000.0001) %MON dynstat_theta_mean           =   5.6902135038434E-01
(PID.TID 0000.0001) %MON dynstat_theta_sd             =   8.6854084470341E-01
(PID.TID 0000.0001) %MON dynstat_theta_del2           =   1.0428226816258E-06
(PID.TID 0000.0001) %MON dynstat_salt_max             =   3.4700000000000E+01
(PID.TID 0000.0001) %MON dynstat_salt_min             =   3.4000000000000E+01
(PID.TID 0000.0001) %MON dynstat_salt_mean            =   3.4499222681940E+01
(PID.TID 0000.0001) %MON dynstat_salt_sd              =   2.7635069461318E-01
(PID.TID 0000.0001) %MON dynstat_salt_del2            =   3.8427559216171E-07
(PID.TID 0000.0001) %MON advcfl_uvel_max              =   4.9743167798786E-04
(PID.TID 0000.0001) %MON advcfl_vvel_max              =   4.5694137125705E-04
(PID.TID 0000.0001) %MON advcfl_wvel_max              =   9.6752728337429E-04
(PID.TID 0000.0001) %MON advcfl_W_hf_max              =   9.6752728337429E-04
(PID.TID 0000.0001) %MON pe_b_mean                    =  -8.3217583633163E-01
(PID.TID 0000.0001) %MON ke_max                       =   7.7143056093111E-06
(PID.TID 0000.0001) %MON ke_mean                      =   3.3487383708492E-08
(PID.TID 0000.0001) %MON ke_vol                       =   4.2725197568844E+12
(PID.TID 0000.0001) // =======================================================
(PID.TID 0000.0001) // End MONITOR dynamic field statistics
(PID.TID 0000.0001) // =======================================================
(PID.TID 0000.0001) // =======================================================
(PID.TID 0000.0001) // Begin OBCS MONITOR field statistics
(PID.TID 0000.0001) // =======================================================
(PID.TID 0000.0001) %MON obc_N_vVel_max               =   1.4727335312594E-05
(PID.TID 0000.0001) %MON obc_N_vVel_min               =   1.4727335312594E-05
(PID.TID 0000.0001) %MON obc_N_vVel_mean              =   1.4727335312594E-05
(PID.TID 0000.0001) %MON obc_N_vVel_sd                =  -4.9372342811759E-24
(PID.TID 0000.0001) %MON obc_N_vVel_Int               =   9.7200413063120E+02
(PID.TID 0000.0001) // =======================================================
(PID.TID 0000.0001) // End OBCS MONITOR field statistics
(PID.TID 0000.0001) // =======================================================
 cg2d: Sum(rhs),rhsMax =   4.51688804683032E+00  2.99892801903979E+02
(PID.TID 0000.0001)      cg2d_init_res =   3.77371081457756E-05
(PID.TID 0000.0001)      cg2d_iters(min,last) =      -1      83
(PID.TID 0000.0001)      cg2d_last_res =   9.72482151969774E-12
(PID.TID 0000.0001) // =======================================================
(PID.TID 0000.0001) // Begin MONITOR dynamic field statistics
(PID.TID 0000.0001) // =======================================================
(PID.TID 0000.0001) %MON time_tsnumber                =                   505
(PID.TID 0000.0001) %MON time_secondsf                =   5.0500000000000E+04
(PID.TID 0000.0001) %MON dynstat_eta_max              =   5.7993310276291E+00
(PID.TID 0000.0001) %MON dynstat_eta_min              =  -1.4199136417445E+01
(PID.TID 0000.0001) %MON dynstat_eta_mean             =  -2.5084855782417E+00
(PID.TID 0000.0001) %MON dynstat_eta_sd               =   4.9514816525522E+00
(PID.TID 0000.0001) %MON dynstat_eta_del2             =   2.0714150524617E-01
(PID.TID 0000.0001) %MON dynstat_uvel_max             =   1.4125617597438E-03
(PID.TID 0000.0001) %MON dynstat_uvel_min             =  -4.9898868088185E-03
(PID.TID 0000.0001) %MON dynstat_uvel_mean            =  -1.2025779060407E-07
(PID.TID 0000.0001) %MON dynstat_uvel_sd              =   2.0060338250687E-04
(PID.TID 0000.0001) %MON dynstat_uvel_del2            =   3.3912856763952E-07
(PID.TID 0000.0001) %MON dynstat_vvel_max             =   4.5793938211616E-03
(PID.TID 0000.0001) %MON dynstat_vvel_min             =  -2.3516482332120E-03
(PID.TID 0000.0001) %MON dynstat_vvel_mean            =   1.4957223157003E-05
(PID.TID 0000.0001) %MON dynstat_vvel_sd              =   1.6556653175674E-04
(PID.TID 0000.0001) %MON dynstat_vvel_del2            =   3.7352058468750E-07
(PID.TID 0000.0001) %MON dynstat_wvel_max             =   1.8258202945607E-04
(PID.TID 0000.0001) %MON dynstat_wvel_min             =  -1.8996730426606E-04
(PID.TID 0000.0001) %MON dynstat_wvel_mean            =   6.5870250686741E-09
(PID.TID 0000.0001) %MON dynstat_wvel_sd              =   2.5635675744061E-05
(PID.TID 0000.0001) %MON dynstat_wvel_del2            =   1.1372764970193E-07
(PID.TID 0000.0001) %MON dynstat_theta_max            =   1.2000000000000E+00
(PID.TID 0000.0001) %MON dynstat_theta_min            =  -1.0000000000000E+00
(PID.TID 0000.0001) %MON dynstat_theta_mean           =   5.6902102487253E-01
(PID.TID 0000.0001) %MON dynstat_theta_sd             =   8.6854065883730E-01
(PID.TID 0000.0001) %MON dynstat_theta_del2           =   1.1147894992750E-06
(PID.TID 0000.0001) %MON dynstat_salt_max             =   3.4700000000000E+01
(PID.TID 0000.0001) %MON dynstat_salt_min             =   3.4000000000000E+01
(PID.TID 0000.0001) %MON dynstat_salt_mean            =   3.4499222551374E+01
(PID.TID 0000.0001) %MON dynstat_salt_sd              =   2.7635062612265E-01
(PID.TID 0000.0001) %MON dynstat_salt_del2            =   4.0458442658985E-07
(PID.TID 0000.0001) %MON advcfl_uvel_max              =   4.9898868088185E-04
(PID.TID 0000.0001) %MON advcfl_vvel_max              =   4.5793938211616E-04
(PID.TID 0000.0001) %MON advcfl_wvel_max              =   9.4983652133028E-04
(PID.TID 0000.0001) %MON advcfl_W_hf_max              =   9.4983652133028E-04
(PID.TID 0000.0001) %MON pe_b_mean                    =  -8.3122833393539E-01
(PID.TID 0000.0001) %MON ke_max                       =   7.7599147150646E-06
(PID.TID 0000.0001) %MON ke_mean                      =   3.3538183824604E-08
(PID.TID 0000.0001) %MON ke_vol                       =   4.2725196762613E+12
(PID.TID 0000.0001) // =======================================================
(PID.TID 0000.0001) // End MONITOR dynamic field statistics
(PID.TID 0000.0001) // =======================================================
(PID.TID 0000.0001) // =======================================================
(PID.TID 0000.0001) // Begin OBCS MONITOR field statistics
(PID.TID 0000.0001) // =======================================================
(PID.TID 0000.0001) %MON obc_N_vVel_max               =   1.4726107758552E-05
(PID.TID 0000.0001) %MON obc_N_vVel_min               =   1.4726107758552E-05
(PID.TID 0000.0001) %MON obc_N_vVel_mean              =   1.4726107758552E-05
(PID.TID 0000.0001) %MON obc_N_vVel_sd                =   4.0769057425316E-12
(PID.TID 0000.0001) %MON obc_N_vVel_Int               =   9.7192311206442E+02
(PID.TID 0000.0001) // =======================================================
(PID.TID 0000.0001) // End OBCS MONITOR field statistics
(PID.TID 0000.0001) // =======================================================
 cg2d: Sum(rhs),rhsMax =   4.51691132945543E+00  2.99892877824860E+02
(PID.TID 0000.0001)      cg2d_init_res =   6.21765295975596E-06
(PID.TID 0000.0001)      cg2d_iters(min,last) =      -1      78
(PID.TID 0000.0001)      cg2d_last_res =   7.59742540092714E-12
(PID.TID 0000.0001) // =======================================================
(PID.TID 0000.0001) // Begin MONITOR dynamic field statistics
(PID.TID 0000.0001) // =======================================================
(PID.TID 0000.0001) %MON time_tsnumber                =                   506
(PID.TID 0000.0001) %MON time_secondsf                =   5.0600000000000E+04
(PID.TID 0000.0001) %MON dynstat_eta_max              =   5.7993132704061E+00
(PID.TID 0000.0001) %MON dynstat_eta_min              =  -1.4199150729029E+01
(PID.TID 0000.0001) %MON dynstat_eta_mean             =  -2.5084991434632E+00
(PID.TID 0000.0001) %MON dynstat_eta_sd               =   4.9514861605709E+00
(PID.TID 0000.0001) %MON dynstat_eta_del2             =   2.0714151453839E-01
(PID.TID 0000.0001) %MON dynstat_uvel_max             =   1.4155669672444E-03
(PID.TID 0000.0001) %MON dynstat_uvel_min             =  -5.0054907125450E-03
(PID.TID 0000.0001) %MON dynstat_uvel_mean            =  -1.2325384220623E-07
(PID.TID 0000.0001) %MON dynstat_uvel_sd              =   2.0097531541755E-04
(PID.TID 0000.0001) %MON dynstat_uvel_del2            =   3.3959573089479E-07
(PID.TID 0000.0001) %MON dynstat_vvel_max             =   4.5893698832627E-03
(PID.TID 0000.0001) %MON dynstat_vvel_min             =  -2.3505191879831E-03
(PID.TID 0000.0001) %MON dynstat_vvel_mean            =   1.4957527294785E-05
(PID.TID 0000.0001) %MON dynstat_vvel_sd              =   1.6532982980822E-04
(PID.TID 0000.0001) %MON dynstat_vvel_del2            =   3.7295981283892E-07
(PID.TID 0000.0001) %MON dynstat_wvel_max             =   1.8233924312530E-04
(PID.TID 0000.0001) %MON dynstat_wvel_min             =  -1.9396287709042E-04
(PID.TID 0000.0001) %MON dynstat_wvel_mean            =   6.5783947481724E-09
(PID.TID 0000.0001) %MON dynstat_wvel_sd              =   2.5323782074942E-05
(PID.TID 0000.0001) %MON dynstat_wvel_del2            =   1.1356444154273E-07
(PID.TID 0000.0001) %MON dynstat_theta_max            =   1.2000000000000E+00
(PID.TID 0000.0001) %MON dynstat_theta_min            =  -1.0000000000000E+00
(PID.TID 0000.0001) %MON dynstat_theta_mean           =   5.6902069876670E-01
(PID.TID 0000.0001) %MON dynstat_theta_sd             =   8.6854048024756E-01
(PID.TID 0000.0001) %MON dynstat_theta_del2           =   1.1150905211806E-06
(PID.TID 0000.0001) %MON dynstat_salt_max             =   3.4700000000000E+01
(PID.TID 0000.0001) %MON dynstat_salt_min             =   3.4000000000000E+01
(PID.TID 0000.0001) %MON dynstat_salt_mean            =   3.4499222420587E+01
(PID.TID 0000.0001) %MON dynstat_salt_sd              =   2.7635055995259E-01
(PID.TID 0000.0001) %MON dynstat_salt_del2            =   4.0488980853357E-07
(PID.TID 0000.0001) %MON advcfl_uvel_max              =   5.0054907125450E-04
(PID.TID 0000.0001) %MON advcfl_vvel_max              =   4.5893698832627E-04
(PID.TID 0000.0001) %MON advcfl_wvel_max              =   9.6981438545209E-04
(PID.TID 0000.0001) %MON advcfl_W_hf_max              =   9.6981438545209E-04
(PID.TID 0000.0001) %MON pe_b_mean                    =  -8.3123221156025E-01
(PID.TID 0000.0001) %MON ke_max                       =   7.8057700642695E-06
(PID.TID 0000.0001) %MON ke_mean                      =   3.3572230905389E-08
(PID.TID 0000.0001) %MON ke_vol                       =   4.2725195956652E+12
(PID.TID 0000.0001) // =======================================================
(PID.TID 0000.0001) // End MONITOR dynamic field statistics
(PID.TID 0000.0001) // =======================================================
(PID.TID 0000.0001) // =======================================================
(PID.TID 0000.0001) // Begin OBCS MONITOR field statistics
(PID.TID 0000.0001) // =======================================================
(PID.TID 0000.0001) %MON obc_N_vVel_max               =   1.4726120632946E-05
(PID.TID 0000.0001) %MON obc_N_vVel_min               =   1.4726120632946E-05
(PID.TID 0000.0001) %MON obc_N_vVel_mean              =   1.4726120632946E-05
(PID.TID 0000.0001) %MON obc_N_vVel_sd                =   1.7685521454614E-12
(PID.TID 0000.0001) %MON obc_N_vVel_Int               =   9.7192396177444E+02
(PID.TID 0000.0001) // =======================================================
(PID.TID 0000.0001) // End OBCS MONITOR field statistics
(PID.TID 0000.0001) // =======================================================
 cg2d: Sum(rhs),rhsMax =   4.51693461082150E+00  2.99892953745552E+02
(PID.TID 0000.0001)      cg2d_init_res =   6.16421723120815E-06
(PID.TID 0000.0001)      cg2d_iters(min,last) =      -1      77
(PID.TID 0000.0001)      cg2d_last_res =   9.64782642586102E-12
(PID.TID 0000.0001) // =======================================================
(PID.TID 0000.0001) // Begin MONITOR dynamic field statistics
(PID.TID 0000.0001) // =======================================================
(PID.TID 0000.0001) %MON time_tsnumber                =                   507
(PID.TID 0000.0001) %MON time_secondsf                =   5.0700000000000E+04
(PID.TID 0000.0001) %MON dynstat_eta_max              =   5.7992937168657E+00
(PID.TID 0000.0001) %MON dynstat_eta_min              =  -1.4199165240769E+01
(PID.TID 0000.0001) %MON dynstat_eta_mean             =  -2.5085127079903E+00
(PID.TID 0000.0001) %MON dynstat_eta_sd               =   4.9514906671414E+00
(PID.TID 0000.0001) %MON dynstat_eta_del2             =   2.0714152369079E-01
(PID.TID 0000.0001) %MON dynstat_uvel_max             =   1.4185637728232E-03
(PID.TID 0000.0001) %MON dynstat_uvel_min             =  -5.0211286368640E-03
(PID.TID 0000.0001) %MON dynstat_uvel_mean            =  -1.2539360233672E-07
(PID.TID 0000.0001) %MON dynstat_uvel_sd              =   2.0134655303834E-04
(PID.TID 0000.0001) %MON dynstat_uvel_del2            =   3.4007005001554E-07
(PID.TID 0000.0001) %MON dynstat_vvel_max             =   4.5993530783969E-03
(PID.TID 0000.0001) %MON dynstat_vvel_min             =  -2.3493609388616E-03
(PID.TID 0000.0001) %MON dynstat_vvel_mean            =   1.4958893831663E-05
(PID.TID 0000.0001) %MON dynstat_vvel_sd              =   1.6500305335309E-04
(PID.TID 0000.0001) %MON dynstat_vvel_del2            =   3.7213379260004E-07
(PID.TID 0000.0001) %MON dynstat_wvel_max             =   1.8367843347026E-04
(PID.TID 0000.0001) %MON dynstat_wvel_min             =  -1.9679715035019E-04
(PID.TID 0000.0001) %MON dynstat_wvel_mean            =   6.5819309327418E-09
(PID.TID 0000.0001) %MON dynstat_wvel_sd              =   2.4926329798238E-05
(PID.TID 0000.0001) %MON dynstat_wvel_del2            =   1.1311057616054E-07
(PID.TID 0000.0001) %MON dynstat_theta_max            =   1.2000000000000E+00
(PID.TID 0000.0001) %MON dynstat_theta_min            =  -1.0000000000000E+00
(PID.TID 0000.0001) %MON dynstat_theta_mean           =   5.6902037206361E-01
(PID.TID 0000.0001) %MON dynstat_theta_sd             =   8.6854030158101E-01
(PID.TID 0000.0001) %MON dynstat_theta_del2           =   1.1160689814253E-06
(PID.TID 0000.0001) %MON dynstat_salt_max             =   3.4700000000000E+01
(PID.TID 0000.0001) %MON dynstat_salt_min             =   3.4000000000000E+01
(PID.TID 0000.0001) %MON dynstat_salt_mean            =   3.4499222289579E+01
(PID.TID 0000.0001) %MON dynstat_salt_sd              =   2.7635049373846E-01
(PID.TID 0000.0001) %MON dynstat_salt_del2            =   4.0538455533411E-07
(PID.TID 0000.0001) %MON advcfl_uvel_max              =   5.0211286368640E-04
(PID.TID 0000.0001) %MON advcfl_vvel_max              =   4.5993530783969E-04
(PID.TID 0000.0001) %MON advcfl_wvel_max              =   9.8398575175094E-04
(PID.TID 0000.0001) %MON advcfl_W_hf_max              =   9.8398575175094E-04
(PID.TID 0000.0001) %MON pe_b_mean                    =  -8.3123608867381E-01
(PID.TID 0000.0001) %MON ke_max                       =   7.8518729319712E-06
(PID.TID 0000.0001) %MON ke_mean                      =   3.3591482606936E-08
(PID.TID 0000.0001) %MON ke_vol                       =   4.2725195150878E+12
(PID.TID 0000.0001) // =======================================================
(PID.TID 0000.0001) // End MONITOR dynamic field statistics
(PID.TID 0000.0001) // =======================================================
(PID.TID 0000.0001) // =======================================================
(PID.TID 0000.0001) // Begin OBCS MONITOR field statistics
(PID.TID 0000.0001) // =======================================================
(PID.TID 0000.0001) %MON obc_N_vVel_max               =   1.4728338995685E-05
(PID.TID 0000.0001) %MON obc_N_vVel_min               =   1.4728338995685E-05
(PID.TID 0000.0001) %MON obc_N_vVel_mean              =   1.4728338995685E-05
(PID.TID 0000.0001) %MON obc_N_vVel_sd                =   4.4323289079370E-12
(PID.TID 0000.0001) %MON obc_N_vVel_Int               =   9.7207037371518E+02
(PID.TID 0000.0001) // =======================================================
(PID.TID 0000.0001) // End OBCS MONITOR field statistics
(PID.TID 0000.0001) // =======================================================
 cg2d: Sum(rhs),rhsMax =   4.51695789317716E+00  2.99893029670318E+02
(PID.TID 0000.0001)      cg2d_init_res =   6.15881728182341E-06
(PID.TID 0000.0001)      cg2d_iters(min,last) =      -1      77
(PID.TID 0000.0001)      cg2d_last_res =   9.79784437943075E-12
(PID.TID 0000.0001) // =======================================================
(PID.TID 0000.0001) // Begin MONITOR dynamic field statistics
(PID.TID 0000.0001) // =======================================================
(PID.TID 0000.0001) %MON time_tsnumber                =                   508
(PID.TID 0000.0001) %MON time_secondsf                =   5.0800000000000E+04
(PID.TID 0000.0001) %MON dynstat_eta_max              =   5.7992707571683E+00
(PID.TID 0000.0001) %MON dynstat_eta_min              =  -1.4199179859319E+01
(PID.TID 0000.0001) %MON dynstat_eta_mean             =  -2.5085262731077E+00
(PID.TID 0000.0001) %MON dynstat_eta_sd               =   4.9514951724622E+00
(PID.TID 0000.0001) %MON dynstat_eta_del2             =   2.0714153283265E-01
(PID.TID 0000.0001) %MON dynstat_uvel_max             =   1.4215513760005E-03
(PID.TID 0000.0001) %MON dynstat_uvel_min             =  -5.0368008303376E-03
(PID.TID 0000.0001) %MON dynstat_uvel_mean            =  -1.2613493738942E-07
(PID.TID 0000.0001) %MON dynstat_uvel_sd              =   2.0171698001199E-04
(PID.TID 0000.0001) %MON dynstat_uvel_del2            =   3.4055099369045E-07
(PID.TID 0000.0001) %MON dynstat_vvel_max             =   4.6093547845205E-03
(PID.TID 0000.0001) %MON dynstat_vvel_min             =  -2.3481734828810E-03
(PID.TID 0000.0001) %MON dynstat_vvel_mean            =   1.4961155032186E-05
(PID.TID 0000.0001) %MON dynstat_vvel_sd              =   1.6460218470319E-04
(PID.TID 0000.0001) %MON dynstat_vvel_del2            =   3.7106265625346E-07
(PID.TID 0000.0001) %MON dynstat_wvel_max             =   1.8852014261342E-04
(PID.TID 0000.0001) %MON dynstat_wvel_min             =  -1.9785713554753E-04
(PID.TID 0000.0001) %MON dynstat_wvel_mean            =   6.5798702025701E-09
(PID.TID 0000.0001) %MON dynstat_wvel_sd              =   2.4450770478784E-05
(PID.TID 0000.0001) %MON dynstat_wvel_del2            =   1.1236210277263E-07
(PID.TID 0000.0001) %MON dynstat_theta_max            =   1.2000000000000E+00
(PID.TID 0000.0001) %MON dynstat_theta_min            =  -1.0000000000000E+00
(PID.TID 0000.0001) %MON dynstat_theta_mean           =   5.6902004474768E-01
(PID.TID 0000.0001) %MON dynstat_theta_sd             =   8.6854012286524E-01
(PID.TID 0000.0001) %MON dynstat_theta_del2           =   1.1176861802744E-06
(PID.TID 0000.0001) %MON dynstat_salt_max             =   3.4700000000000E+01
(PID.TID 0000.0001) %MON dynstat_salt_min             =   3.4000000000000E+01
(PID.TID 0000.0001) %MON dynstat_salt_mean            =   3.4499222158345E+01
(PID.TID 0000.0001) %MON dynstat_salt_sd              =   2.7635042748901E-01
(PID.TID 0000.0001) %MON dynstat_salt_del2            =   4.0605775578349E-07
(PID.TID 0000.0001) %MON advcfl_uvel_max              =   5.0368008303376E-04
(PID.TID 0000.0001) %MON advcfl_vvel_max              =   4.6093547845205E-04
(PID.TID 0000.0001) %MON advcfl_wvel_max              =   9.8928567773767E-04
(PID.TID 0000.0001) %MON advcfl_W_hf_max              =   9.8928567773767E-04
(PID.TID 0000.0001) %MON pe_b_mean                    =  -8.3123996542203E-01
(PID.TID 0000.0001) %MON ke_max                       =   7.8982247891764E-06
(PID.TID 0000.0001) %MON ke_mean                      =   3.3598631562861E-08
(PID.TID 0000.0001) %MON ke_vol                       =   4.2725194345145E+12
(PID.TID 0000.0001) // =======================================================
(PID.TID 0000.0001) // End MONITOR dynamic field statistics
(PID.TID 0000.0001) // =======================================================
(PID.TID 0000.0001) // =======================================================
(PID.TID 0000.0001) // Begin OBCS MONITOR field statistics
(PID.TID 0000.0001) // =======================================================
(PID.TID 0000.0001) %MON obc_N_vVel_max               =   1.4731709246399E-05
(PID.TID 0000.0001) %MON obc_N_vVel_min               =   1.4731709246399E-05
(PID.TID 0000.0001) %MON obc_N_vVel_mean              =   1.4731709246399E-05
(PID.TID 0000.0001) %MON obc_N_vVel_sd                =  -6.4623485355705E-24
(PID.TID 0000.0001) %MON obc_N_vVel_Int               =   9.7229281026235E+02
(PID.TID 0000.0001) // =======================================================
(PID.TID 0000.0001) // End OBCS MONITOR field statistics
(PID.TID 0000.0001) // =======================================================
 cg2d: Sum(rhs),rhsMax =   4.51698117463552E+00  2.99893105598742E+02
(PID.TID 0000.0001)      cg2d_init_res =   6.15186590053863E-06
(PID.TID 0000.0001)      cg2d_iters(min,last) =      -1      77
(PID.TID 0000.0001)      cg2d_last_res =   9.99756275749102E-12
(PID.TID 0000.0001) // =======================================================
(PID.TID 0000.0001) // Begin MONITOR dynamic field statistics
(PID.TID 0000.0001) // =======================================================
(PID.TID 0000.0001) %MON time_tsnumber                =                   509
(PID.TID 0000.0001) %MON time_secondsf                =   5.0900000000000E+04
(PID.TID 0000.0001) %MON dynstat_eta_max              =   5.7992474863978E+00
(PID.TID 0000.0001) %MON dynstat_eta_min              =  -1.4199194440833E+01
(PID.TID 0000.0001) %MON dynstat_eta_mean             =  -2.5085398377639E+00
(PID.TID 0000.0001) %MON dynstat_eta_sd               =   4.9514996763057E+00
(PID.TID 0000.0001) %MON dynstat_eta_del2             =   2.0714154199783E-01
(PID.TID 0000.0001) %MON dynstat_uvel_max             =   1.4245298465907E-03
(PID.TID 0000.0001) %MON dynstat_uvel_min             =  -5.0525074192240E-03
(PID.TID 0000.0001) %MON dynstat_uvel_mean            =  -1.2575082768605E-07
(PID.TID 0000.0001) %MON dynstat_uvel_sd              =   2.0208655241836E-04
(PID.TID 0000.0001) %MON dynstat_uvel_del2            =   3.4103806086883E-07
(PID.TID 0000.0001) %MON dynstat_vvel_max             =   4.6193722537856E-03
(PID.TID 0000.0001) %MON dynstat_vvel_min             =  -2.3469561019187E-03
(PID.TID 0000.0001) %MON dynstat_vvel_mean            =   1.4963603077103E-05
(PID.TID 0000.0001) %MON dynstat_vvel_sd              =   1.6414616504952E-04
(PID.TID 0000.0001) %MON dynstat_vvel_del2            =   3.6977816231721E-07
(PID.TID 0000.0001) %MON dynstat_wvel_max             =   1.9153884480711E-04
(PID.TID 0000.0001) %MON dynstat_wvel_min             =  -1.9708621483415E-04
(PID.TID 0000.0001) %MON dynstat_wvel_mean            =   6.5792800825710E-09
(PID.TID 0000.0001) %MON dynstat_wvel_sd              =   2.3907581038108E-05
(PID.TID 0000.0001) %MON dynstat_wvel_del2            =   1.1132548920164E-07
(PID.TID 0000.0001) %MON dynstat_theta_max            =   1.2000000000000E+00
(PID.TID 0000.0001) %MON dynstat_theta_min            =  -1.0000000000000E+00
(PID.TID 0000.0001) %MON dynstat_theta_mean           =   5.6901971681213E-01
(PID.TID 0000.0001) %MON dynstat_theta_sd             =   8.6853994409338E-01
(PID.TID 0000.0001) %MON dynstat_theta_del2           =   1.1198782070575E-06
(PID.TID 0000.0001) %MON dynstat_salt_max             =   3.4700000000000E+01
(PID.TID 0000.0001) %MON dynstat_salt_min             =   3.4000000000000E+01
(PID.TID 0000.0001) %MON dynstat_salt_mean            =   3.4499222026883E+01
(PID.TID 0000.0001) %MON dynstat_salt_sd              =   2.7635036120214E-01
(PID.TID 0000.0001) %MON dynstat_salt_del2            =   4.0689145342104E-07
(PID.TID 0000.0001) %MON advcfl_uvel_max              =   5.0525074192240E-04
(PID.TID 0000.0001) %MON advcfl_vvel_max              =   4.6193722537856E-04
(PID.TID 0000.0001) %MON advcfl_wvel_max              =   9.8543107417077E-04
(PID.TID 0000.0001) %MON advcfl_W_hf_max              =   9.8543107417077E-04
(PID.TID 0000.0001) %MON pe_b_mean                    =  -8.3124384163077E-01
(PID.TID 0000.0001) %MON ke_max                       =   7.9448271896220E-06
(PID.TID 0000.0001) %MON ke_mean                      =   3.3596855642234E-08
(PID.TID 0000.0001) %MON ke_vol                       =   4.2725193539377E+12
(PID.TID 0000.0001) // =======================================================
(PID.TID 0000.0001) // End MONITOR dynamic field statistics
(PID.TID 0000.0001) // =======================================================
(PID.TID 0000.0001) // =======================================================
(PID.TID 0000.0001) // Begin OBCS MONITOR field statistics
(PID.TID 0000.0001) // =======================================================
(PID.TID 0000.0001) %MON obc_N_vVel_max               =   1.4734129048617E-05
(PID.TID 0000.0001) %MON obc_N_vVel_min               =   1.4734129048617E-05
(PID.TID 0000.0001) %MON obc_N_vVel_mean              =   1.4734129048617E-05
(PID.TID 0000.0001) %MON obc_N_vVel_sd                =   2.1390050872272E-12
(PID.TID 0000.0001) %MON obc_N_vVel_Int               =   9.7245251720871E+02
(PID.TID 0000.0001) // =======================================================
(PID.TID 0000.0001) // End OBCS MONITOR field statistics
(PID.TID 0000.0001) // =======================================================
 cg2d: Sum(rhs),rhsMax =   4.51700445154623E+00  2.99893181529577E+02
(PID.TID 0000.0001)      cg2d_init_res =   6.14282239668541E-06
(PID.TID 0000.0001)      cg2d_iters(min,last) =      -1      78
(PID.TID 0000.0001)      cg2d_last_res =   7.74661478727206E-12
(PID.TID 0000.0001) // =======================================================
(PID.TID 0000.0001) // Begin MONITOR dynamic field statistics
(PID.TID 0000.0001) // =======================================================
(PID.TID 0000.0001) %MON time_tsnumber                =                   510
(PID.TID 0000.0001) %MON time_secondsf                =   5.1000000000000E+04
(PID.TID 0000.0001) %MON dynstat_eta_max              =   5.7992241796662E+00
(PID.TID 0000.0001) %MON dynstat_eta_min              =  -1.4199208945293E+01
(PID.TID 0000.0001) %MON dynstat_eta_mean             =  -2.5085533999212E+00
(PID.TID 0000.0001) %MON dynstat_eta_sd               =   4.9515041783117E+00
(PID.TID 0000.0001) %MON dynstat_eta_del2             =   2.0714155118522E-01
(PID.TID 0000.0001) %MON dynstat_uvel_max             =   1.4275005244349E-03
(PID.TID 0000.0001) %MON dynstat_uvel_min             =  -5.0682484637301E-03
(PID.TID 0000.0001) %MON dynstat_uvel_mean            =  -1.2451713309282E-07
(PID.TID 0000.0001) %MON dynstat_uvel_sd              =   2.0245525645277E-04
(PID.TID 0000.0001) %MON dynstat_uvel_del2            =   3.4153072297435E-07
(PID.TID 0000.0001) %MON dynstat_vvel_max             =   4.6293927872103E-03
(PID.TID 0000.0001) %MON dynstat_vvel_min             =  -2.3457077221369E-03
(PID.TID 0000.0001) %MON dynstat_vvel_mean            =   1.4965527374050E-05
(PID.TID 0000.0001) %MON dynstat_vvel_sd              =   1.6365635313122E-04
(PID.TID 0000.0001) %MON dynstat_vvel_del2            =   3.6832298792030E-07
(PID.TID 0000.0001) %MON dynstat_wvel_max             =   1.9269683980431E-04
(PID.TID 0000.0001) %MON dynstat_wvel_min             =  -1.9444762322529E-04
(PID.TID 0000.0001) %MON dynstat_wvel_mean            =   6.5866499967853E-09
(PID.TID 0000.0001) %MON dynstat_wvel_sd              =   2.3310357398836E-05
(PID.TID 0000.0001) %MON dynstat_wvel_del2            =   1.1001792402032E-07
(PID.TID 0000.0001) %MON dynstat_theta_max            =   1.2000000000000E+00
(PID.TID 0000.0001) %MON dynstat_theta_min            =  -1.0000000000000E+00
(PID.TID 0000.0001) %MON dynstat_theta_mean           =   5.6901938825168E-01
(PID.TID 0000.0001) %MON dynstat_theta_sd             =   8.6853976526270E-01
(PID.TID 0000.0001) %MON dynstat_theta_del2           =   1.1225578373752E-06
(PID.TID 0000.0001) %MON dynstat_salt_max             =   3.4700000000000E+01
(PID.TID 0000.0001) %MON dynstat_salt_min             =   3.4000000000000E+01
(PID.TID 0000.0001) %MON dynstat_salt_mean            =   3.4499221895191E+01
(PID.TID 0000.0001) %MON dynstat_salt_sd              =   2.7635029487688E-01
(PID.TID 0000.0001) %MON dynstat_salt_del2            =   4.0786260090630E-07
(PID.TID 0000.0001) %MON advcfl_uvel_max              =   5.0682484637301E-04
(PID.TID 0000.0001) %MON advcfl_vvel_max              =   4.6293927872103E-04
(PID.TID 0000.0001) %MON advcfl_wvel_max              =   9.7223811612644E-04
(PID.TID 0000.0001) %MON advcfl_W_hf_max              =   9.7223811612644E-04
(PID.TID 0000.0001) %MON pe_b_mean                    =  -8.3124771708001E-01
(PID.TID 0000.0001) %MON ke_max                       =   7.9916818894498E-06
(PID.TID 0000.0001) %MON ke_mean                      =   3.3589711081697E-08
(PID.TID 0000.0001) %MON ke_vol                       =   4.2725192733637E+12
(PID.TID 0000.0001) // =======================================================
(PID.TID 0000.0001) // End MONITOR dynamic field statistics
(PID.TID 0000.0001) // =======================================================
(PID.TID 0000.0001) // =======================================================
(PID.TID 0000.0001) // Begin OBCS MONITOR field statistics
(PID.TID 0000.0001) // =======================================================
(PID.TID 0000.0001) %MON obc_N_vVel_max               =   1.4734709806606E-05
(PID.TID 0000.0001) %MON obc_N_vVel_min               =   1.4734709806606E-05
(PID.TID 0000.0001) %MON obc_N_vVel_mean              =   1.4734709806606E-05
(PID.TID 0000.0001) %MON obc_N_vVel_sd                =   1.1368683772162E-12
(PID.TID 0000.0001) %MON obc_N_vVel_Int               =   9.7249084723598E+02
(PID.TID 0000.0001) // =======================================================
(PID.TID 0000.0001) // End OBCS MONITOR field statistics
(PID.TID 0000.0001) // =======================================================
 cg2d: Sum(rhs),rhsMax =   4.51702772174174E+00  2.99893257458411E+02
(PID.TID 0000.0001)      cg2d_init_res =   6.13177506193256E-06
(PID.TID 0000.0001)      cg2d_iters(min,last) =      -1      78
(PID.TID 0000.0001)      cg2d_last_res =   7.79851071332881E-12
(PID.TID 0000.0001) // =======================================================
(PID.TID 0000.0001) // Begin MONITOR dynamic field statistics
(PID.TID 0000.0001) // =======================================================
(PID.TID 0000.0001) %MON time_tsnumber                =                   511
(PID.TID 0000.0001) %MON time_secondsf                =   5.1100000000000E+04
(PID.TID 0000.0001) %MON dynstat_eta_max              =   5.7992008745299E+00
(PID.TID 0000.0001) %MON dynstat_eta_min              =  -1.4199223399814E+01
(PID.TID 0000.0001) %MON dynstat_eta_mean             =  -2.5085669583390E+00
(PID.TID 0000.0001) %MON dynstat_eta_sd               =   4.9515086791554E+00
(PID.TID 0000.0001) %MON dynstat_eta_del2             =   2.0714156039447E-01
(PID.TID 0000.0001) %MON dynstat_uvel_max             =   1.4304657298521E-03
(PID.TID 0000.0001) %MON dynstat_uvel_min             =  -5.0840239010110E-03
(PID.TID 0000.0001) %MON dynstat_uvel_mean            =  -1.2267060204678E-07
(PID.TID 0000.0001) %MON dynstat_uvel_sd              =   2.0282309755808E-04
(PID.TID 0000.0001) %MON dynstat_uvel_del2            =   3.4202844254658E-07
(PID.TID 0000.0001) %MON dynstat_vvel_max             =   4.6394071573296E-03
(PID.TID 0000.0001) %MON dynstat_vvel_min             =  -2.3444277295841E-03
(PID.TID 0000.0001) %MON dynstat_vvel_mean            =   1.4966688655432E-05
(PID.TID 0000.0001) %MON dynstat_vvel_sd              =   1.6315584434814E-04
(PID.TID 0000.0001) %MON dynstat_vvel_del2            =   3.6674966871978E-07
(PID.TID 0000.0001) %MON dynstat_wvel_max             =   1.9197414517698E-04
(PID.TID 0000.0001) %MON dynstat_wvel_min             =  -1.8992532287882E-04
(PID.TID 0000.0001) %MON dynstat_wvel_mean            =   6.5997616532824E-09
(PID.TID 0000.0001) %MON dynstat_wvel_sd              =   2.2675900575704E-05
(PID.TID 0000.0001) %MON dynstat_wvel_del2            =   1.0846758843778E-07
(PID.TID 0000.0001) %MON dynstat_theta_max            =   1.2000000000000E+00
(PID.TID 0000.0001) %MON dynstat_theta_min            =  -1.0000000000000E+00
(PID.TID 0000.0001) %MON dynstat_theta_mean           =   5.6901905906072E-01
(PID.TID 0000.0001) %MON dynstat_theta_sd             =   8.6853958639048E-01
(PID.TID 0000.0001) %MON dynstat_theta_del2           =   1.1256183005953E-06
(PID.TID 0000.0001) %MON dynstat_salt_max             =   3.4700000000000E+01
(PID.TID 0000.0001) %MON dynstat_salt_min             =   3.4000000000000E+01
(PID.TID 0000.0001) %MON dynstat_salt_mean            =   3.4499221763268E+01
(PID.TID 0000.0001) %MON dynstat_salt_sd              =   2.7635022851897E-01
(PID.TID 0000.0001) %MON dynstat_salt_del2            =   4.0894006055012E-07
(PID.TID 0000.0001) %MON advcfl_uvel_max              =   5.0840239010110E-04
(PID.TID 0000.0001) %MON advcfl_vvel_max              =   4.6394071573296E-04
(PID.TID 0000.0001) %MON advcfl_wvel_max              =   9.5987072588489E-04
(PID.TID 0000.0001) %MON advcfl_W_hf_max              =   9.5987072588489E-04
(PID.TID 0000.0001) %MON pe_b_mean                    =  -8.3125159165359E-01
(PID.TID 0000.0001) %MON ke_max                       =   8.0387906533007E-06
(PID.TID 0000.0001) %MON ke_mean                      =   3.3581011590356E-08
(PID.TID 0000.0001) %MON ke_vol                       =   4.2725191928045E+12
(PID.TID 0000.0001) // =======================================================
(PID.TID 0000.0001) // End MONITOR dynamic field statistics
(PID.TID 0000.0001) // =======================================================
(PID.TID 0000.0001) // =======================================================
(PID.TID 0000.0001) // Begin OBCS MONITOR field statistics
(PID.TID 0000.0001) // =======================================================
(PID.TID 0000.0001) %MON obc_N_vVel_max               =   1.4734169099196E-05
(PID.TID 0000.0001) %MON obc_N_vVel_min               =   1.4734169099196E-05
(PID.TID 0000.0001) %MON obc_N_vVel_mean              =   1.4734169099196E-05
(PID.TID 0000.0001) %MON obc_N_vVel_sd                =  -5.5834691347329E-24
(PID.TID 0000.0001) %MON obc_N_vVel_Int               =   9.7245516054697E+02
(PID.TID 0000.0001) // =======================================================
(PID.TID 0000.0001) // End OBCS MONITOR field statistics
(PID.TID 0000.0001) // =======================================================
 cg2d: Sum(rhs),rhsMax =   4.51705098522183E+00  2.99893333383619E+02
(PID.TID 0000.0001)      cg2d_init_res =   6.11921140580498E-06
(PID.TID 0000.0001)      cg2d_iters(min,last) =      -1      78
(PID.TID 0000.0001)      cg2d_last_res =   7.74389725210748E-12
(PID.TID 0000.0001) // =======================================================
(PID.TID 0000.0001) // Begin MONITOR dynamic field statistics
(PID.TID 0000.0001) // =======================================================
(PID.TID 0000.0001) %MON time_tsnumber                =                   512
(PID.TID 0000.0001) %MON time_secondsf                =   5.1200000000000E+04
(PID.TID 0000.0001) %MON dynstat_eta_max              =   5.7991775543608E+00
(PID.TID 0000.0001) %MON dynstat_eta_min              =  -1.4199237836654E+01
(PID.TID 0000.0001) %MON dynstat_eta_mean             =  -2.5085805130036E+00
(PID.TID 0000.0001) %MON dynstat_eta_sd               =   4.9515131795871E+00
(PID.TID 0000.0001) %MON dynstat_eta_del2             =   2.0714156962570E-01
(PID.TID 0000.0001) %MON dynstat_uvel_max             =   1.4334274899417E-03
(PID.TID 0000.0001) %MON dynstat_uvel_min             =  -5.0998337119479E-03
(PID.TID 0000.0001) %MON dynstat_uvel_mean            =  -1.2052146330291E-07
(PID.TID 0000.0001) %MON dynstat_uvel_sd              =   2.0319008298849E-04
(PID.TID 0000.0001) %MON dynstat_uvel_del2            =   3.4253068993436E-07
(PID.TID 0000.0001) %MON dynstat_vvel_max             =   4.6494153008801E-03
(PID.TID 0000.0001) %MON dynstat_vvel_min             =  -2.3431163614163E-03
(PID.TID 0000.0001) %MON dynstat_vvel_mean            =   1.4967332411146E-05
(PID.TID 0000.0001) %MON dynstat_vvel_sd              =   1.6266869518009E-04
(PID.TID 0000.0001) %MON dynstat_vvel_del2            =   3.6511897017532E-07
(PID.TID 0000.0001) %MON dynstat_wvel_max             =   1.8936916051254E-04
(PID.TID 0000.0001) %MON dynstat_wvel_min             =  -1.8510239257691E-04
(PID.TID 0000.0001) %MON dynstat_wvel_mean            =   6.6124317909477E-09
(PID.TID 0000.0001) %MON dynstat_wvel_sd              =   2.2024195659631E-05
(PID.TID 0000.0001) %MON dynstat_wvel_del2            =   1.0671362996163E-07
(PID.TID 0000.0001) %MON dynstat_theta_max            =   1.2000000000000E+00
(PID.TID 0000.0001) %MON dynstat_theta_min            =  -1.0000000000000E+00
(PID.TID 0000.0001) %MON dynstat_theta_mean           =   5.6901872923450E-01
(PID.TID 0000.0001) %MON dynstat_theta_sd             =   8.6853940748235E-01
(PID.TID 0000.0001) %MON dynstat_theta_del2           =   1.1289374695689E-06
(PID.TID 0000.0001) %MON dynstat_salt_max             =   3.4700000000000E+01
(PID.TID 0000.0001) %MON dynstat_salt_min             =   3.4000000000000E+01
(PID.TID 0000.0001) %MON dynstat_salt_mean            =   3.4499221631112E+01
(PID.TID 0000.0001) %MON dynstat_salt_sd              =   2.7635016212995E-01
(PID.TID 0000.0001) %MON dynstat_salt_del2            =   4.1008986814169E-07
(PID.TID 0000.0001) %MON advcfl_uvel_max              =   5.0998337119479E-04
(PID.TID 0000.0001) %MON advcfl_vvel_max              =   4.6494153008801E-04
(PID.TID 0000.0001) %MON advcfl_wvel_max              =   9.4684580256269E-04
(PID.TID 0000.0001) %MON advcfl_W_hf_max              =   9.4684580256269E-04
(PID.TID 0000.0001) %MON pe_b_mean                    =  -8.3125546532655E-01
(PID.TID 0000.0001) %MON ke_max                       =   8.0861550704366E-06
(PID.TID 0000.0001) %MON ke_mean                      =   3.3574689927714E-08
(PID.TID 0000.0001) %MON ke_vol                       =   4.2725191122675E+12
(PID.TID 0000.0001) // =======================================================
(PID.TID 0000.0001) // End MONITOR dynamic field statistics
(PID.TID 0000.0001) // =======================================================
(PID.TID 0000.0001) // =======================================================
(PID.TID 0000.0001) // Begin OBCS MONITOR field statistics
(PID.TID 0000.0001) // =======================================================
(PID.TID 0000.0001) %MON obc_N_vVel_max               =   1.4733613954955E-05
(PID.TID 0000.0001) %MON obc_N_vVel_min               =   1.4733613954954E-05
(PID.TID 0000.0001) %MON obc_N_vVel_mean              =   1.4733613954954E-05
(PID.TID 0000.0001) %MON obc_N_vVel_sd                =   2.8262099691929E-12
(PID.TID 0000.0001) %MON obc_N_vVel_Int               =   9.7241852102699E+02
(PID.TID 0000.0001) // =======================================================
(PID.TID 0000.0001) // End OBCS MONITOR field statistics
(PID.TID 0000.0001) // =======================================================
 cg2d: Sum(rhs),rhsMax =   4.51707424306273E+00  2.99893409304342E+02
(PID.TID 0000.0001)      cg2d_init_res =   6.10540319302608E-06
(PID.TID 0000.0001)      cg2d_iters(min,last) =      -1      77
(PID.TID 0000.0001)      cg2d_last_res =   9.94972018732756E-12
(PID.TID 0000.0001) // =======================================================
(PID.TID 0000.0001) // Begin MONITOR dynamic field statistics
(PID.TID 0000.0001) // =======================================================
(PID.TID 0000.0001) %MON time_tsnumber                =                   513
(PID.TID 0000.0001) %MON time_secondsf                =   5.1300000000000E+04
(PID.TID 0000.0001) %MON dynstat_eta_max              =   5.7991542062745E+00
(PID.TID 0000.0001) %MON dynstat_eta_min              =  -1.4199252269087E+01
(PID.TID 0000.0001) %MON dynstat_eta_mean             =  -2.5085940645054E+00
(PID.TID 0000.0001) %MON dynstat_eta_sd               =   4.9515176799849E+00
(PID.TID 0000.0001) %MON dynstat_eta_del2             =   2.0714157887878E-01
(PID.TID 0000.0001) %MON dynstat_uvel_max             =   1.4363865707603E-03
(PID.TID 0000.0001) %MON dynstat_uvel_min             =  -5.1156779186226E-03
(PID.TID 0000.0001) %MON dynstat_uvel_mean            =  -1.1843326551986E-07
(PID.TID 0000.0001) %MON dynstat_uvel_sd              =   2.0355620686621E-04
(PID.TID 0000.0001) %MON dynstat_uvel_del2            =   3.4303696382750E-07
(PID.TID 0000.0001) %MON dynstat_vvel_max             =   4.6594226712676E-03
(PID.TID 0000.0001) %MON dynstat_vvel_min             =  -2.3417746871282E-03
(PID.TID 0000.0001) %MON dynstat_vvel_mean            =   1.4967887329833E-05
(PID.TID 0000.0001) %MON dynstat_vvel_sd              =   1.6221905545345E-04
(PID.TID 0000.0001) %MON dynstat_vvel_del2            =   3.6349772129914E-07
(PID.TID 0000.0001) %MON dynstat_wvel_max             =   1.8489912393691E-04
(PID.TID 0000.0001) %MON dynstat_wvel_min             =  -1.8574567782479E-04
(PID.TID 0000.0001) %MON dynstat_wvel_mean            =   6.6212793280293E-09
(PID.TID 0000.0001) %MON dynstat_wvel_sd              =   2.1378211585670E-05
(PID.TID 0000.0001) %MON dynstat_wvel_del2            =   1.0480582148833E-07
(PID.TID 0000.0001) %MON dynstat_theta_max            =   1.2000000000000E+00
(PID.TID 0000.0001) %MON dynstat_theta_min            =  -1.0000000000000E+00
(PID.TID 0000.0001) %MON dynstat_theta_mean           =   5.6901839877120E-01
(PID.TID 0000.0001) %MON dynstat_theta_sd             =   8.6853922854730E-01
(PID.TID 0000.0001) %MON dynstat_theta_del2           =   1.1323825130136E-06
(PID.TID 0000.0001) %MON dynstat_salt_max             =   3.4700000000000E+01
(PID.TID 0000.0001) %MON dynstat_salt_min             =   3.4000000000000E+01
(PID.TID 0000.0001) %MON dynstat_salt_mean            =   3.4499221498722E+01
(PID.TID 0000.0001) %MON dynstat_salt_sd              =   2.7635009571288E-01
(PID.TID 0000.0001) %MON dynstat_salt_del2            =   4.1127501985782E-07
(PID.TID 0000.0001) %MON advcfl_uvel_max              =   5.1156779186226E-04
(PID.TID 0000.0001) %MON advcfl_vvel_max              =   4.6594226712676E-04
(PID.TID 0000.0001) %MON advcfl_wvel_max              =   9.2872838912394E-04
(PID.TID 0000.0001) %MON advcfl_W_hf_max              =   9.2872838912394E-04
(PID.TID 0000.0001) %MON pe_b_mean                    =  -8.3125933811245E-01
(PID.TID 0000.0001) %MON ke_max                       =   8.1337763003666E-06
(PID.TID 0000.0001) %MON ke_mean                      =   3.3574647798293E-08
(PID.TID 0000.0001) %MON ke_vol                       =   4.2725190317528E+12
(PID.TID 0000.0001) // =======================================================
(PID.TID 0000.0001) // End MONITOR dynamic field statistics
(PID.TID 0000.0001) // =======================================================
(PID.TID 0000.0001) // =======================================================
(PID.TID 0000.0001) // Begin OBCS MONITOR field statistics
(PID.TID 0000.0001) // =======================================================
(PID.TID 0000.0001) %MON obc_N_vVel_max               =   1.4733586817926E-05
(PID.TID 0000.0001) %MON obc_N_vVel_min               =   1.4733586817926E-05
(PID.TID 0000.0001) %MON obc_N_vVel_mean              =   1.4733586817926E-05
(PID.TID 0000.0001) %MON obc_N_vVel_sd                =   2.4594223365038E-12
(PID.TID 0000.0001) %MON obc_N_vVel_Int               =   9.7241672998309E+02
(PID.TID 0000.0001) // =======================================================
(PID.TID 0000.0001) // End OBCS MONITOR field statistics
(PID.TID 0000.0001) // =======================================================
 cg2d: Sum(rhs),rhsMax =   4.51709749628351E+00  2.99893485223035E+02
(PID.TID 0000.0001)      cg2d_init_res =   6.09090181821430E-06
(PID.TID 0000.0001)      cg2d_iters(min,last) =      -1      77
(PID.TID 0000.0001)      cg2d_last_res =   9.77868289508980E-12
(PID.TID 0000.0001) // =======================================================
(PID.TID 0000.0001) // Begin MONITOR dynamic field statistics
(PID.TID 0000.0001) // =======================================================
(PID.TID 0000.0001) %MON time_tsnumber                =                   514
(PID.TID 0000.0001) %MON time_secondsf                =   5.1400000000000E+04
(PID.TID 0000.0001) %MON dynstat_eta_max              =   5.7991308258695E+00
(PID.TID 0000.0001) %MON dynstat_eta_min              =  -1.4199266694568E+01
(PID.TID 0000.0001) %MON dynstat_eta_mean             =  -2.5086076134309E+00
(PID.TID 0000.0001) %MON dynstat_eta_sd               =   4.9515221804763E+00
(PID.TID 0000.0001) %MON dynstat_eta_del2             =   2.0714158815380E-01
(PID.TID 0000.0001) %MON dynstat_uvel_max             =   1.4393420624934E-03
(PID.TID 0000.0001) %MON dynstat_uvel_min             =  -5.1315566944732E-03
(PID.TID 0000.0001) %MON dynstat_uvel_mean            =  -1.1672679526354E-07
(PID.TID 0000.0001) %MON dynstat_uvel_sd              =   2.0392144873400E-04
(PID.TID 0000.0001) %MON dynstat_uvel_del2            =   3.4354681011317E-07
(PID.TID 0000.0001) %MON dynstat_vvel_max             =   4.6694345158405E-03
(PID.TID 0000.0001) %MON dynstat_vvel_min             =  -2.3404041920791E-03
(PID.TID 0000.0001) %MON dynstat_vvel_mean            =   1.4968677688257E-05
(PID.TID 0000.0001) %MON dynstat_vvel_sd              =   1.6183021534866E-04
(PID.TID 0000.0001) %MON dynstat_vvel_del2            =   3.6195614348354E-07
(PID.TID 0000.0001) %MON dynstat_wvel_max             =   1.7860024998072E-04
(PID.TID 0000.0001) %MON dynstat_wvel_min             =  -1.8639002569353E-04
(PID.TID 0000.0001) %MON dynstat_wvel_mean            =   6.6265943300299E-09
(PID.TID 0000.0001) %MON dynstat_wvel_sd              =   2.0763406276436E-05
(PID.TID 0000.0001) %MON dynstat_wvel_del2            =   1.0280376917823E-07
(PID.TID 0000.0001) %MON dynstat_theta_max            =   1.2000000000000E+00
(PID.TID 0000.0001) %MON dynstat_theta_min            =  -1.0000000000000E+00
(PID.TID 0000.0001) %MON dynstat_theta_mean           =   5.6901806767197E-01
(PID.TID 0000.0001) %MON dynstat_theta_sd             =   8.6853904958088E-01
(PID.TID 0000.0001) %MON dynstat_theta_del2           =   1.1358155409132E-06
(PID.TID 0000.0001) %MON dynstat_salt_max             =   3.4700000000000E+01
(PID.TID 0000.0001) %MON dynstat_salt_min             =   3.4000000000000E+01
(PID.TID 0000.0001) %MON dynstat_salt_mean            =   3.4499221366098E+01
(PID.TID 0000.0001) %MON dynstat_salt_sd              =   2.7635002926611E-01
(PID.TID 0000.0001) %MON dynstat_salt_del2            =   4.1245711923686E-07
(PID.TID 0000.0001) %MON advcfl_uvel_max              =   5.1315566944732E-04
(PID.TID 0000.0001) %MON advcfl_vvel_max              =   4.6694345158405E-04
(PID.TID 0000.0001) %MON advcfl_wvel_max              =   9.3195012846767E-04
(PID.TID 0000.0001) %MON advcfl_W_hf_max              =   9.3195012846767E-04
(PID.TID 0000.0001) %MON pe_b_mean                    =  -8.3126321003597E-01
(PID.TID 0000.0001) %MON ke_max                       =   8.1816552282913E-06
(PID.TID 0000.0001) %MON ke_mean                      =   3.3584602935101E-08
(PID.TID 0000.0001) %MON ke_vol                       =   4.2725189512568E+12
(PID.TID 0000.0001) // =======================================================
(PID.TID 0000.0001) // End MONITOR dynamic field statistics
(PID.TID 0000.0001) // =======================================================
(PID.TID 0000.0001) // =======================================================
(PID.TID 0000.0001) // Begin OBCS MONITOR field statistics
(PID.TID 0000.0001) // =======================================================
(PID.TID 0000.0001) %MON obc_N_vVel_max               =   1.4734082487871E-05
(PID.TID 0000.0001) %MON obc_N_vVel_min               =   1.4734082487871E-05
(PID.TID 0000.0001) %MON obc_N_vVel_mean              =   1.4734082487871E-05
(PID.TID 0000.0001) %MON obc_N_vVel_sd                =  -1.4449811325536E-23
(PID.TID 0000.0001) %MON obc_N_vVel_Int               =   9.7244944419949E+02
(PID.TID 0000.0001) // =======================================================
(PID.TID 0000.0001) // End OBCS MONITOR field statistics
(PID.TID 0000.0001) // =======================================================
 cg2d: Sum(rhs),rhsMax =   4.51712074561034E+00  2.99893561140338E+02
(PID.TID 0000.0001)      cg2d_init_res =   6.07609127554051E-06
(PID.TID 0000.0001)      cg2d_iters(min,last) =      -1      77
(PID.TID 0000.0001)      cg2d_last_res =   9.66242269224946E-12
(PID.TID 0000.0001) // =======================================================
(PID.TID 0000.0001) // Begin MONITOR dynamic field statistics
(PID.TID 0000.0001) // =======================================================
(PID.TID 0000.0001) %MON time_tsnumber                =                   515
(PID.TID 0000.0001) %MON time_secondsf                =   5.1500000000000E+04
(PID.TID 0000.0001) %MON dynstat_eta_max              =   5.7991074178698E+00
(PID.TID 0000.0001) %MON dynstat_eta_min              =  -1.4199281104819E+01
(PID.TID 0000.0001) %MON dynstat_eta_mean             =  -2.5086211601889E+00
(PID.TID 0000.0001) %MON dynstat_eta_sd               =   4.9515266811038E+00
(PID.TID 0000.0001) %MON dynstat_eta_del2             =   2.0714159745060E-01
(PID.TID 0000.0001) %MON dynstat_uvel_max             =   1.4422920044659E-03
(PID.TID 0000.0001) %MON dynstat_uvel_min             =  -5.1474702349612E-03
(PID.TID 0000.0001) %MON dynstat_uvel_mean            =  -1.1559849683190E-07
(PID.TID 0000.0001) %MON dynstat_uvel_sd              =   2.0428578410813E-04
(PID.TID 0000.0001) %MON dynstat_uvel_del2            =   3.4405983826454E-07
(PID.TID 0000.0001) %MON dynstat_vvel_max             =   4.6794533971087E-03
(PID.TID 0000.0001) %MON dynstat_vvel_min             =  -2.3390063962037E-03
(PID.TID 0000.0001) %MON dynstat_vvel_mean            =   1.4969809017917E-05
(PID.TID 0000.0001) %MON dynstat_vvel_sd              =   1.6152360430221E-04
(PID.TID 0000.0001) %MON dynstat_vvel_del2            =   3.6056476467829E-07
(PID.TID 0000.0001) %MON dynstat_wvel_max             =   1.7052774379040E-04
(PID.TID 0000.0001) %MON dynstat_wvel_min             =  -1.8703536038101E-04
(PID.TID 0000.0001) %MON dynstat_wvel_mean            =   6.6298289990279E-09
(PID.TID 0000.0001) %MON dynstat_wvel_sd              =   2.0206817074775E-05
(PID.TID 0000.0001) %MON dynstat_wvel_del2            =   1.0077561012688E-07
(PID.TID 0000.0001) %MON dynstat_theta_max            =   1.2000000000000E+00
(PID.TID 0000.0001) %MON dynstat_theta_min            =  -1.0000000000000E+00
(PID.TID 0000.0001) %MON dynstat_theta_mean           =   5.6901773593981E-01
(PID.TID 0000.0001) %MON dynstat_theta_sd             =   8.6853887054033E-01
(PID.TID 0000.0001) %MON dynstat_theta_del2           =   1.1390991705657E-06
(PID.TID 0000.0001) %MON dynstat_salt_max             =   3.4700000000000E+01
(PID.TID 0000.0001) %MON dynstat_salt_min             =   3.4000000000000E+01
(PID.TID 0000.0001) %MON dynstat_salt_mean            =   3.4499221233243E+01
(PID.TID 0000.0001) %MON dynstat_salt_sd              =   2.7634996277640E-01
(PID.TID 0000.0001) %MON dynstat_salt_del2            =   4.1359788319360E-07
(PID.TID 0000.0001) %MON advcfl_uvel_max              =   5.1474702349612E-04
(PID.TID 0000.0001) %MON advcfl_vvel_max              =   4.6794533971087E-04
(PID.TID 0000.0001) %MON advcfl_wvel_max              =   9.3517680190507E-04
(PID.TID 0000.0001) %MON advcfl_W_hf_max              =   9.3517680190507E-04
(PID.TID 0000.0001) %MON pe_b_mean                    =  -8.3126708112619E-01
(PID.TID 0000.0001) %MON ke_max                       =   8.2297926072074E-06
(PID.TID 0000.0001) %MON ke_mean                      =   3.3607941014637E-08
(PID.TID 0000.0001) %MON ke_vol                       =   4.2725188707762E+12
(PID.TID 0000.0001) // =======================================================
(PID.TID 0000.0001) // End MONITOR dynamic field statistics
(PID.TID 0000.0001) // =======================================================
(PID.TID 0000.0001) // =======================================================
(PID.TID 0000.0001) // Begin OBCS MONITOR field statistics
(PID.TID 0000.0001) // =======================================================
(PID.TID 0000.0001) %MON obc_N_vVel_max               =   1.4734943087845E-05
(PID.TID 0000.0001) %MON obc_N_vVel_min               =   1.4734943087844E-05
(PID.TID 0000.0001) %MON obc_N_vVel_mean              =   1.4734943087845E-05
(PID.TID 0000.0001) %MON obc_N_vVel_sd                =  -1.1942420093734E-23
(PID.TID 0000.0001) %MON obc_N_vVel_Int               =   9.7250624379775E+02
(PID.TID 0000.0001) // =======================================================
(PID.TID 0000.0001) // End OBCS MONITOR field statistics
(PID.TID 0000.0001) // =======================================================
 cg2d: Sum(rhs),rhsMax =   4.51714399160027E+00  2.99893637057663E+02
(PID.TID 0000.0001)      cg2d_init_res =   6.06166250652093E-06
(PID.TID 0000.0001)      cg2d_iters(min,last) =      -1      77
(PID.TID 0000.0001)      cg2d_last_res =   9.63542978873013E-12
(PID.TID 0000.0001) // =======================================================
(PID.TID 0000.0001) // Begin MONITOR dynamic field statistics
(PID.TID 0000.0001) // =======================================================
(PID.TID 0000.0001) %MON time_tsnumber                =                   516
(PID.TID 0000.0001) %MON time_secondsf                =   5.1600000000000E+04
(PID.TID 0000.0001) %MON dynstat_eta_max              =   5.7990839889905E+00
(PID.TID 0000.0001) %MON dynstat_eta_min              =  -1.4199295494059E+01
(PID.TID 0000.0001) %MON dynstat_eta_mean             =  -2.5086347051003E+00
(PID.TID 0000.0001) %MON dynstat_eta_sd               =   4.9515311818621E+00
(PID.TID 0000.0001) %MON dynstat_eta_del2             =   2.0714160676903E-01
(PID.TID 0000.0001) %MON dynstat_uvel_max             =   1.4452341709550E-03
(PID.TID 0000.0001) %MON dynstat_uvel_min             =  -5.1634187941305E-03
(PID.TID 0000.0001) %MON dynstat_uvel_mean            =  -1.1509587207529E-07
(PID.TID 0000.0001) %MON dynstat_uvel_sd              =   2.0464920004348E-04
(PID.TID 0000.0001) %MON dynstat_uvel_del2            =   3.4457573496801E-07
(PID.TID 0000.0001) %MON dynstat_vvel_max             =   4.6894795615822E-03
(PID.TID 0000.0001) %MON dynstat_vvel_min             =  -2.3375824997629E-03
(PID.TID 0000.0001) %MON dynstat_vvel_mean            =   1.4971204882958E-05
(PID.TID 0000.0001) %MON dynstat_vvel_sd              =   1.6131780214343E-04
(PID.TID 0000.0001) %MON dynstat_vvel_del2            =   3.5939105156191E-07
(PID.TID 0000.0001) %MON dynstat_wvel_max             =   1.6075554912830E-04
(PID.TID 0000.0001) %MON dynstat_wvel_min             =  -1.8768163573969E-04
(PID.TID 0000.0001) %MON dynstat_wvel_mean            =   6.6314746722372E-09
(PID.TID 0000.0001) %MON dynstat_wvel_sd              =   1.9735617318585E-05
(PID.TID 0000.0001) %MON dynstat_wvel_del2            =   9.8796012821352E-08
(PID.TID 0000.0001) %MON dynstat_theta_max            =   1.2000000000000E+00
(PID.TID 0000.0001) %MON dynstat_theta_min            =  -1.0000000000000E+00
(PID.TID 0000.0001) %MON dynstat_theta_mean           =   5.6901740357967E-01
(PID.TID 0000.0001) %MON dynstat_theta_sd             =   8.6853869140527E-01
(PID.TID 0000.0001) %MON dynstat_theta_del2           =   1.1421021446589E-06
(PID.TID 0000.0001) %MON dynstat_salt_max             =   3.4700000000000E+01
(PID.TID 0000.0001) %MON dynstat_salt_min             =   3.4000000000000E+01
(PID.TID 0000.0001) %MON dynstat_salt_mean            =   3.4499221100157E+01
(PID.TID 0000.0001) %MON dynstat_salt_sd              =   2.7634989623706E-01
(PID.TID 0000.0001) %MON dynstat_salt_del2            =   4.1466070921523E-07
(PID.TID 0000.0001) %MON advcfl_uvel_max              =   5.1634187941305E-04
(PID.TID 0000.0001) %MON advcfl_vvel_max              =   4.6894795615822E-04
(PID.TID 0000.0001) %MON advcfl_wvel_max              =   9.3840817869844E-04
(PID.TID 0000.0001) %MON advcfl_W_hf_max              =   9.3840817869844E-04
(PID.TID 0000.0001) %MON pe_b_mean                    =  -8.3127095140774E-01
(PID.TID 0000.0001) %MON ke_max                       =   8.2781894284954E-06
(PID.TID 0000.0001) %MON ke_mean                      =   3.3647578529216E-08
(PID.TID 0000.0001) %MON ke_vol                       =   4.2725187903085E+12
(PID.TID 0000.0001) // =======================================================
(PID.TID 0000.0001) // End MONITOR dynamic field statistics
(PID.TID 0000.0001) // =======================================================
(PID.TID 0000.0001) // =======================================================
(PID.TID 0000.0001) // Begin OBCS MONITOR field statistics
(PID.TID 0000.0001) // =======================================================
(PID.TID 0000.0001) %MON obc_N_vVel_max               =   1.4736089368402E-05
(PID.TID 0000.0001) %MON obc_N_vVel_min               =   1.4736089368402E-05
(PID.TID 0000.0001) %MON obc_N_vVel_mean              =   1.4736089368402E-05
(PID.TID 0000.0001) %MON obc_N_vVel_sd                =  -2.4039936552322E-24
(PID.TID 0000.0001) %MON obc_N_vVel_Int               =   9.7258189831450E+02
(PID.TID 0000.0001) // =======================================================
(PID.TID 0000.0001) // End OBCS MONITOR field statistics
(PID.TID 0000.0001) // =======================================================
 cg2d: Sum(rhs),rhsMax =   4.51716723475627E+00  2.99893712974313E+02
(PID.TID 0000.0001)      cg2d_init_res =   6.04819833305479E-06
(PID.TID 0000.0001)      cg2d_iters(min,last) =      -1      77
(PID.TID 0000.0001)      cg2d_last_res =   9.69273738034418E-12
(PID.TID 0000.0001) // =======================================================
(PID.TID 0000.0001) // Begin MONITOR dynamic field statistics
(PID.TID 0000.0001) // =======================================================
(PID.TID 0000.0001) %MON time_tsnumber                =                   517
(PID.TID 0000.0001) %MON time_secondsf                =   5.1700000000000E+04
(PID.TID 0000.0001) %MON dynstat_eta_max              =   5.7990605447872E+00
(PID.TID 0000.0001) %MON dynstat_eta_min              =  -1.4199309861612E+01
(PID.TID 0000.0001) %MON dynstat_eta_mean             =  -2.5086482484388E+00
(PID.TID 0000.0001) %MON dynstat_eta_sd               =   4.9515356826518E+00
(PID.TID 0000.0001) %MON dynstat_eta_del2             =   2.0714161610893E-01
(PID.TID 0000.0001) %MON dynstat_uvel_max             =   1.4481668709427E-03
(PID.TID 0000.0001) %MON dynstat_uvel_min             =  -5.1794026032477E-03
(PID.TID 0000.0001) %MON dynstat_uvel_mean            =  -1.1514168049768E-07
(PID.TID 0000.0001) %MON dynstat_uvel_sd              =   2.0501170868562E-04
(PID.TID 0000.0001) %MON dynstat_uvel_del2            =   3.4509427442272E-07
(PID.TID 0000.0001) %MON dynstat_vvel_max             =   4.6995123371715E-03
(PID.TID 0000.0001) %MON dynstat_vvel_min             =  -2.3361332154277E-03
(PID.TID 0000.0001) %MON dynstat_vvel_mean            =   1.4972697407665E-05
(PID.TID 0000.0001) %MON dynstat_vvel_sd              =   1.6122762940101E-04
(PID.TID 0000.0001) %MON dynstat_vvel_del2            =   3.5849593685355E-07
(PID.TID 0000.0001) %MON dynstat_wvel_max             =   1.5261881600496E-04
(PID.TID 0000.0001) %MON dynstat_wvel_min             =  -1.8832882499889E-04
(PID.TID 0000.0001) %MON dynstat_wvel_mean            =   6.6311791137688E-09
(PID.TID 0000.0001) %MON dynstat_wvel_sd              =   1.9375115697064E-05
(PID.TID 0000.0001) %MON dynstat_wvel_del2            =   9.6943372851804E-08
(PID.TID 0000.0001) %MON dynstat_theta_max            =   1.2000000000000E+00
(PID.TID 0000.0001) %MON dynstat_theta_min            =  -1.0000000000000E+00
(PID.TID 0000.0001) %MON dynstat_theta_mean           =   5.6901707059836E-01
(PID.TID 0000.0001) %MON dynstat_theta_sd             =   8.6853851217621E-01
(PID.TID 0000.0001) %MON dynstat_theta_del2           =   1.1447046777442E-06
(PID.TID 0000.0001) %MON dynstat_salt_max             =   3.4700000000000E+01
(PID.TID 0000.0001) %MON dynstat_salt_min             =   3.4000000000000E+01
(PID.TID 0000.0001) %MON dynstat_salt_mean            =   3.4499220966843E+01
(PID.TID 0000.0001) %MON dynstat_salt_sd              =   2.7634982964781E-01
(PID.TID 0000.0001) %MON dynstat_salt_del2            =   4.1561217203852E-07
(PID.TID 0000.0001) %MON advcfl_uvel_max              =   5.1794026032477E-04
(PID.TID 0000.0001) %MON advcfl_vvel_max              =   4.6995123371715E-04
(PID.TID 0000.0001) %MON advcfl_wvel_max              =   9.4164412499447E-04
(PID.TID 0000.0001) %MON advcfl_W_hf_max              =   9.4164412499447E-04
(PID.TID 0000.0001) %MON pe_b_mean                    =  -8.3127482088473E-01
(PID.TID 0000.0001) %MON ke_max                       =   8.3268470106441E-06
(PID.TID 0000.0001) %MON ke_mean                      =   3.3705841343543E-08
(PID.TID 0000.0001) %MON ke_vol                       =   4.2725187098517E+12
(PID.TID 0000.0001) // =======================================================
(PID.TID 0000.0001) // End MONITOR dynamic field statistics
(PID.TID 0000.0001) // =======================================================
(PID.TID 0000.0001) // =======================================================
(PID.TID 0000.0001) // Begin OBCS MONITOR field statistics
(PID.TID 0000.0001) // =======================================================
(PID.TID 0000.0001) %MON obc_N_vVel_max               =   1.4737479923980E-05
(PID.TID 0000.0001) %MON obc_N_vVel_min               =   1.4737479923980E-05
(PID.TID 0000.0001) %MON obc_N_vVel_mean              =   1.4737479923980E-05
(PID.TID 0000.0001) %MON obc_N_vVel_sd                =   3.2988778294900E-12
(PID.TID 0000.0001) %MON obc_N_vVel_Int               =   9.7267367498268E+02
(PID.TID 0000.0001) // =======================================================
(PID.TID 0000.0001) // End OBCS MONITOR field statistics
(PID.TID 0000.0001) // =======================================================
 cg2d: Sum(rhs),rhsMax =   4.51719047540108E+00  2.99893788888698E+02
(PID.TID 0000.0001)      cg2d_init_res =   6.03625487819804E-06
(PID.TID 0000.0001)      cg2d_iters(min,last) =      -1      77
(PID.TID 0000.0001)      cg2d_last_res =   9.80035419790808E-12
(PID.TID 0000.0001) // =======================================================
(PID.TID 0000.0001) // Begin MONITOR dynamic field statistics
(PID.TID 0000.0001) // =======================================================
(PID.TID 0000.0001) %MON time_tsnumber                =                   518
(PID.TID 0000.0001) %MON time_secondsf                =   5.1800000000000E+04
(PID.TID 0000.0001) %MON dynstat_eta_max              =   5.7990370879728E+00
(PID.TID 0000.0001) %MON dynstat_eta_min              =  -1.4199324210920E+01
(PID.TID 0000.0001) %MON dynstat_eta_mean             =  -2.5086617903703E+00
(PID.TID 0000.0001) %MON dynstat_eta_sd               =   4.9515401832663E+00
(PID.TID 0000.0001) %MON dynstat_eta_del2             =   2.0714162547025E-01
(PID.TID 0000.0001) %MON dynstat_uvel_max             =   1.4510892980697E-03
(PID.TID 0000.0001) %MON dynstat_uvel_min             =  -5.1954218666319E-03
(PID.TID 0000.0001) %MON dynstat_uvel_mean            =  -1.1558468189502E-07
(PID.TID 0000.0001) %MON dynstat_uvel_sd              =   2.0537335512028E-04
(PID.TID 0000.0001) %MON dynstat_uvel_del2            =   3.4561532542316E-07
(PID.TID 0000.0001) %MON dynstat_vvel_max             =   4.7095510823632E-03
(PID.TID 0000.0001) %MON dynstat_vvel_min             =  -2.3346587242106E-03
(PID.TID 0000.0001) %MON dynstat_vvel_mean            =   1.4974106627327E-05
(PID.TID 0000.0001) %MON dynstat_vvel_sd              =   1.6126338272526E-04
(PID.TID 0000.0001) %MON dynstat_vvel_del2            =   3.5793045039702E-07
(PID.TID 0000.0001) %MON dynstat_wvel_max             =   1.5332740897264E-04
(PID.TID 0000.0001) %MON dynstat_wvel_min             =  -1.8897692792745E-04
(PID.TID 0000.0001) %MON dynstat_wvel_mean            =   6.6286517301332E-09
(PID.TID 0000.0001) %MON dynstat_wvel_sd              =   1.9146337545118E-05
(PID.TID 0000.0001) %MON dynstat_wvel_del2            =   9.5296093075992E-08
(PID.TID 0000.0001) %MON dynstat_theta_max            =   1.2000000000000E+00
(PID.TID 0000.0001) %MON dynstat_theta_min            =  -1.0000000000000E+00
(PID.TID 0000.0001) %MON dynstat_theta_mean           =   5.6901673700485E-01
(PID.TID 0000.0001) %MON dynstat_theta_sd             =   8.6853833285863E-01
(PID.TID 0000.0001) %MON dynstat_theta_del2           =   1.1468032128080E-06
(PID.TID 0000.0001) %MON dynstat_salt_max             =   3.4700000000000E+01
(PID.TID 0000.0001) %MON dynstat_salt_min             =   3.4000000000000E+01
(PID.TID 0000.0001) %MON dynstat_salt_mean            =   3.4499220833303E+01
(PID.TID 0000.0001) %MON dynstat_salt_sd              =   2.7634976301137E-01
(PID.TID 0000.0001) %MON dynstat_salt_del2            =   4.1642344255667E-07
(PID.TID 0000.0001) %MON advcfl_uvel_max              =   5.1954218666319E-04
(PID.TID 0000.0001) %MON advcfl_vvel_max              =   4.7095510823632E-04
(PID.TID 0000.0001) %MON advcfl_wvel_max              =   9.4488463963727E-04
(PID.TID 0000.0001) %MON advcfl_W_hf_max              =   9.4488463963727E-04
(PID.TID 0000.0001) %MON pe_b_mean                    =  -8.3127868952935E-01
(PID.TID 0000.0001) %MON ke_max                       =   8.3757669936609E-06
(PID.TID 0000.0001) %MON ke_mean                      =   3.3784363862777E-08
(PID.TID 0000.0001) %MON ke_vol                       =   4.2725186294043E+12
(PID.TID 0000.0001) // =======================================================
(PID.TID 0000.0001) // End MONITOR dynamic field statistics
(PID.TID 0000.0001) // =======================================================
(PID.TID 0000.0001) // =======================================================
(PID.TID 0000.0001) // Begin OBCS MONITOR field statistics
(PID.TID 0000.0001) // =======================================================
(PID.TID 0000.0001) %MON obc_N_vVel_max               =   1.4739018567208E-05
(PID.TID 0000.0001) %MON obc_N_vVel_min               =   1.4739018567207E-05
(PID.TID 0000.0001) %MON obc_N_vVel_mean              =   1.4739018567207E-05
(PID.TID 0000.0001) %MON obc_N_vVel_sd                =   2.6073723668514E-12
(PID.TID 0000.0001) %MON obc_N_vVel_Int               =   9.7277522543567E+02
(PID.TID 0000.0001) // =======================================================
(PID.TID 0000.0001) // End OBCS MONITOR field statistics
(PID.TID 0000.0001) // =======================================================
 cg2d: Sum(rhs),rhsMax =   4.51721371350973E+00  2.99893864799268E+02
(PID.TID 0000.0001)      cg2d_init_res =   6.02633092763877E-06
(PID.TID 0000.0001)      cg2d_iters(min,last) =      -1      77
(PID.TID 0000.0001)      cg2d_last_res =   9.91455774121198E-12
(PID.TID 0000.0001) // =======================================================
(PID.TID 0000.0001) // Begin MONITOR dynamic field statistics
(PID.TID 0000.0001) // =======================================================
(PID.TID 0000.0001) %MON time_tsnumber                =                   519
(PID.TID 0000.0001) %MON time_secondsf                =   5.1900000000000E+04
(PID.TID 0000.0001) %MON dynstat_eta_max              =   5.7990136185617E+00
(PID.TID 0000.0001) %MON dynstat_eta_min              =  -1.4199338547143E+01
(PID.TID 0000.0001) %MON dynstat_eta_mean             =  -2.5086753308679E+00
(PID.TID 0000.0001) %MON dynstat_eta_sd               =   4.9515446834300E+00
(PID.TID 0000.0001) %MON dynstat_eta_del2             =   2.0714163485284E-01
(PID.TID 0000.0001) %MON dynstat_uvel_max             =   1.4540015067208E-03
(PID.TID 0000.0001) %MON dynstat_uvel_min             =  -5.2114767607687E-03
(PID.TID 0000.0001) %MON dynstat_uvel_mean            =  -1.1625428805405E-07
(PID.TID 0000.0001) %MON dynstat_uvel_sd              =   2.0573421853461E-04
(PID.TID 0000.0001) %MON dynstat_uvel_del2            =   3.4613885555999E-07
(PID.TID 0000.0001) %MON dynstat_vvel_max             =   4.7195955027172E-03
(PID.TID 0000.0001) %MON dynstat_vvel_min             =  -2.3331587689501E-03
(PID.TID 0000.0001) %MON dynstat_vvel_mean            =   1.4975286336141E-05
(PID.TID 0000.0001) %MON dynstat_vvel_sd              =   1.6143027201627E-04
(PID.TID 0000.0001) %MON dynstat_vvel_del2            =   3.5773269358089E-07
(PID.TID 0000.0001) %MON dynstat_wvel_max             =   1.5403771690895E-04
(PID.TID 0000.0001) %MON dynstat_wvel_min             =  -1.8962596381824E-04
(PID.TID 0000.0001) %MON dynstat_wvel_mean            =   6.6242727226742E-09
(PID.TID 0000.0001) %MON dynstat_wvel_sd              =   1.9063562203006E-05
(PID.TID 0000.0001) %MON dynstat_wvel_del2            =   9.3928002191254E-08
(PID.TID 0000.0001) %MON dynstat_theta_max            =   1.2000000000000E+00
(PID.TID 0000.0001) %MON dynstat_theta_min            =  -1.0000000000000E+00
(PID.TID 0000.0001) %MON dynstat_theta_mean           =   5.6901640281034E-01
(PID.TID 0000.0001) %MON dynstat_theta_sd             =   8.6853815345200E-01
(PID.TID 0000.0001) %MON dynstat_theta_del2           =   1.1483147649277E-06
(PID.TID 0000.0001) %MON dynstat_salt_max             =   3.4700000000000E+01
(PID.TID 0000.0001) %MON dynstat_salt_min             =   3.4000000000000E+01
(PID.TID 0000.0001) %MON dynstat_salt_mean            =   3.4499220699541E+01
(PID.TID 0000.0001) %MON dynstat_salt_sd              =   2.7634969632687E-01
(PID.TID 0000.0001) %MON dynstat_salt_del2            =   4.1707140140178E-07
(PID.TID 0000.0001) %MON advcfl_uvel_max              =   5.2114767607687E-04
(PID.TID 0000.0001) %MON advcfl_vvel_max              =   4.7195955027172E-04
(PID.TID 0000.0001) %MON advcfl_wvel_max              =   9.4812981909118E-04
(PID.TID 0000.0001) %MON advcfl_W_hf_max              =   9.4812981909118E-04
(PID.TID 0000.0001) %MON pe_b_mean                    =  -8.3128255728228E-01
(PID.TID 0000.0001) %MON ke_max                       =   8.4249512272752E-06
(PID.TID 0000.0001) %MON ke_mean                      =   3.3884013403422E-08
(PID.TID 0000.0001) %MON ke_vol                       =   4.2725185489652E+12
(PID.TID 0000.0001) // =======================================================
(PID.TID 0000.0001) // End MONITOR dynamic field statistics
(PID.TID 0000.0001) // =======================================================
(PID.TID 0000.0001) // =======================================================
(PID.TID 0000.0001) // Begin OBCS MONITOR field statistics
(PID.TID 0000.0001) // =======================================================
(PID.TID 0000.0001) %MON obc_N_vVel_max               =   1.4740531465905E-05
(PID.TID 0000.0001) %MON obc_N_vVel_min               =   1.4740531465905E-05
(PID.TID 0000.0001) %MON obc_N_vVel_mean              =   1.4740531465905E-05
(PID.TID 0000.0001) %MON obc_N_vVel_sd                =   4.2870641743695E-12
(PID.TID 0000.0001) %MON obc_N_vVel_Int               =   9.7287507674971E+02
(PID.TID 0000.0001) // =======================================================
(PID.TID 0000.0001) // End OBCS MONITOR field statistics
(PID.TID 0000.0001) // =======================================================
 cg2d: Sum(rhs),rhsMax =   4.51723694864575E+00  2.99893940705197E+02
(PID.TID 0000.0001)      cg2d_init_res =   6.01884518095133E-06
(PID.TID 0000.0001)      cg2d_iters(min,last) =      -1      77
(PID.TID 0000.0001)      cg2d_last_res =   9.99892547062465E-12
(PID.TID 0000.0001) // =======================================================
(PID.TID 0000.0001) // Begin MONITOR dynamic field statistics
(PID.TID 0000.0001) // =======================================================
(PID.TID 0000.0001) %MON time_tsnumber                =                   520
(PID.TID 0000.0001) %MON time_secondsf                =   5.2000000000000E+04
(PID.TID 0000.0001) %MON dynstat_eta_max              =   5.7989901351650E+00
(PID.TID 0000.0001) %MON dynstat_eta_min              =  -1.4199352875238E+01
(PID.TID 0000.0001) %MON dynstat_eta_mean             =  -2.5086888696824E+00
(PID.TID 0000.0001) %MON dynstat_eta_sd               =   4.9515491828606E+00
(PID.TID 0000.0001) %MON dynstat_eta_del2             =   2.0714164425599E-01
(PID.TID 0000.0001) %MON dynstat_uvel_max             =   1.4569041621071E-03
(PID.TID 0000.0001) %MON dynstat_uvel_min             =  -5.2275674343134E-03
(PID.TID 0000.0001) %MON dynstat_uvel_mean            =  -1.1700312888193E-07
(PID.TID 0000.0001) %MON dynstat_uvel_sd              =   2.0609440871407E-04
(PID.TID 0000.0001) %MON dynstat_uvel_del2            =   3.4666492968807E-07
(PID.TID 0000.0001) %MON dynstat_vvel_max             =   4.7296455965057E-03
(PID.TID 0000.0001) %MON dynstat_vvel_min             =  -2.3316328398888E-03
(PID.TID 0000.0001) %MON dynstat_vvel_mean            =   1.4976141633217E-05
(PID.TID 0000.0001) %MON dynstat_vvel_sd              =   1.6172810043881E-04
(PID.TID 0000.0001) %MON dynstat_vvel_del2            =   3.5792538362839E-07
(PID.TID 0000.0001) %MON dynstat_wvel_max             =   1.5474974169013E-04
(PID.TID 0000.0001) %MON dynstat_wvel_min             =  -1.9027596246632E-04
(PID.TID 0000.0001) %MON dynstat_wvel_mean            =   6.6189973221294E-09
(PID.TID 0000.0001) %MON dynstat_wvel_sd              =   1.9132368401883E-05
(PID.TID 0000.0001) %MON dynstat_wvel_del2            =   9.2903164218677E-08
(PID.TID 0000.0001) %MON dynstat_theta_max            =   1.2000000000000E+00
(PID.TID 0000.0001) %MON dynstat_theta_min            =  -1.0000000000000E+00
(PID.TID 0000.0001) %MON dynstat_theta_mean           =   5.6901606802766E-01
(PID.TID 0000.0001) %MON dynstat_theta_sd             =   8.6853797389774E-01
(PID.TID 0000.0001) %MON dynstat_theta_del2           =   1.1491800859851E-06
(PID.TID 0000.0001) %MON dynstat_salt_max             =   3.4700000000000E+01
(PID.TID 0000.0001) %MON dynstat_salt_min             =   3.4000000000000E+01
(PID.TID 0000.0001) %MON dynstat_salt_mean            =   3.4499220565562E+01
(PID.TID 0000.0001) %MON dynstat_salt_sd              =   2.7634962957609E-01
(PID.TID 0000.0001) %MON dynstat_salt_del2            =   4.1753973094252E-07
(PID.TID 0000.0001) %MON advcfl_uvel_max              =   5.2275674343134E-04
(PID.TID 0000.0001) %MON advcfl_vvel_max              =   4.7296455965057E-04
(PID.TID 0000.0001) %MON advcfl_wvel_max              =   9.5137981233162E-04
(PID.TID 0000.0001) %MON advcfl_W_hf_max              =   9.5137981233162E-04
(PID.TID 0000.0001) %MON pe_b_mean                    =  -8.3128642406230E-01
(PID.TID 0000.0001) %MON ke_max                       =   8.4744016352891E-06
(PID.TID 0000.0001) %MON ke_mean                      =   3.4004843715375E-08
(PID.TID 0000.0001) %MON ke_vol                       =   4.2725184685346E+12
(PID.TID 0000.0001) // =======================================================
(PID.TID 0000.0001) // End MONITOR dynamic field statistics
(PID.TID 0000.0001) // =======================================================
(PID.TID 0000.0001) // =======================================================
(PID.TID 0000.0001) // Begin OBCS MONITOR field statistics
(PID.TID 0000.0001) // =======================================================
(PID.TID 0000.0001) %MON obc_N_vVel_max               =   1.4741820895821E-05
(PID.TID 0000.0001) %MON obc_N_vVel_min               =   1.4741820895821E-05
(PID.TID 0000.0001) %MON obc_N_vVel_mean              =   1.4741820895821E-05
(PID.TID 0000.0001) %MON obc_N_vVel_sd                =   7.3677491609577E-13
(PID.TID 0000.0001) %MON obc_N_vVel_Int               =   9.7296017912421E+02
(PID.TID 0000.0001) // =======================================================
(PID.TID 0000.0001) // End OBCS MONITOR field statistics
(PID.TID 0000.0001) // =======================================================
 cg2d: Sum(rhs),rhsMax =   4.51726018005282E+00  2.99894016606658E+02
(PID.TID 0000.0001)      cg2d_init_res =   6.01411888891426E-06
(PID.TID 0000.0001)      cg2d_iters(min,last) =      -1      78
(PID.TID 0000.0001)      cg2d_last_res =   7.45234786404419E-12
(PID.TID 0000.0001) // =======================================================
(PID.TID 0000.0001) // Begin MONITOR dynamic field statistics
(PID.TID 0000.0001) // =======================================================
(PID.TID 0000.0001) %MON time_tsnumber                =                   521
(PID.TID 0000.0001) %MON time_secondsf                =   5.2100000000000E+04
(PID.TID 0000.0001) %MON dynstat_eta_max              =   5.7989666362222E+00
(PID.TID 0000.0001) %MON dynstat_eta_min              =  -1.4199367198707E+01
(PID.TID 0000.0001) %MON dynstat_eta_mean             =  -2.5087024063951E+00
(PID.TID 0000.0001) %MON dynstat_eta_sd               =   4.9515536813350E+00
(PID.TID 0000.0001) %MON dynstat_eta_del2             =   2.0714165367974E-01
(PID.TID 0000.0001) %MON dynstat_uvel_max             =   1.4597982115419E-03
(PID.TID 0000.0001) %MON dynstat_uvel_min             =  -5.2436940171452E-03
(PID.TID 0000.0001) %MON dynstat_uvel_mean            =  -1.1772986605151E-07
(PID.TID 0000.0001) %MON dynstat_uvel_sd              =   2.0645405982401E-04
(PID.TID 0000.0001) %MON dynstat_uvel_del2            =   3.4719370673633E-07
(PID.TID 0000.0001) %MON dynstat_vvel_max             =   4.7397014923992E-03
(PID.TID 0000.0001) %MON dynstat_vvel_min             =  -2.3300803847857E-03
(PID.TID 0000.0001) %MON dynstat_vvel_mean            =   1.4976629017044E-05
(PID.TID 0000.0001) %MON dynstat_vvel_sd              =   1.6215121188444E-04
(PID.TID 0000.0001) %MON dynstat_vvel_del2            =   3.5851416988694E-07
(PID.TID 0000.0001) %MON dynstat_wvel_max             =   1.5546348137681E-04
(PID.TID 0000.0001) %MON dynstat_wvel_min             =  -1.9092696285236E-04
(PID.TID 0000.0001) %MON dynstat_wvel_mean            =   6.6138823064276E-09
(PID.TID 0000.0001) %MON dynstat_wvel_sd              =   1.9348727221940E-05
(PID.TID 0000.0001) %MON dynstat_wvel_del2            =   9.2270602990886E-08
(PID.TID 0000.0001) %MON dynstat_theta_max            =   1.2000000000000E+00
(PID.TID 0000.0001) %MON dynstat_theta_min            =  -1.0000000000000E+00
(PID.TID 0000.0001) %MON dynstat_theta_mean           =   5.6901573267158E-01
(PID.TID 0000.0001) %MON dynstat_theta_sd             =   8.6853779417605E-01
(PID.TID 0000.0001) %MON dynstat_theta_del2           =   1.1493653770358E-06
(PID.TID 0000.0001) %MON dynstat_salt_max             =   3.4700000000000E+01
(PID.TID 0000.0001) %MON dynstat_salt_min             =   3.4000000000000E+01
(PID.TID 0000.0001) %MON dynstat_salt_mean            =   3.4499220431369E+01
(PID.TID 0000.0001) %MON dynstat_salt_sd              =   2.7634956275250E-01
(PID.TID 0000.0001) %MON dynstat_salt_del2            =   4.1781923488217E-07
(PID.TID 0000.0001) %MON advcfl_uvel_max              =   5.2436940171452E-04
(PID.TID 0000.0001) %MON advcfl_vvel_max              =   4.7397014923992E-04
(PID.TID 0000.0001) %MON advcfl_wvel_max              =   9.5463481426179E-04
(PID.TID 0000.0001) %MON advcfl_W_hf_max              =   9.5463481426179E-04
(PID.TID 0000.0001) %MON pe_b_mean                    =  -8.3129028978146E-01
(PID.TID 0000.0001) %MON ke_max                       =   8.5241201074591E-06
(PID.TID 0000.0001) %MON ke_mean                      =   3.4146080491580E-08
(PID.TID 0000.0001) %MON ke_vol                       =   4.2725183881141E+12
(PID.TID 0000.0001) // =======================================================
(PID.TID 0000.0001) // End MONITOR dynamic field statistics
(PID.TID 0000.0001) // =======================================================
(PID.TID 0000.0001) // =======================================================
(PID.TID 0000.0001) // Begin OBCS MONITOR field statistics
(PID.TID 0000.0001) // =======================================================
(PID.TID 0000.0001) %MON obc_N_vVel_max               =   1.4742732586430E-05
(PID.TID 0000.0001) %MON obc_N_vVel_min               =   1.4742732586430E-05
(PID.TID 0000.0001) %MON obc_N_vVel_mean              =   1.4742732586430E-05
(PID.TID 0000.0001) %MON obc_N_vVel_sd                =   3.1751005835233E-12
(PID.TID 0000.0001) %MON obc_N_vVel_Int               =   9.7302035070439E+02
(PID.TID 0000.0001) // =======================================================
(PID.TID 0000.0001) // End OBCS MONITOR field statistics
(PID.TID 0000.0001) // =======================================================
 cg2d: Sum(rhs),rhsMax =   4.51728340681906E+00  2.99894092504214E+02
(PID.TID 0000.0001)      cg2d_init_res =   6.01234276619569E-06
(PID.TID 0000.0001)      cg2d_iters(min,last) =      -1      78
(PID.TID 0000.0001)      cg2d_last_res =   7.44831786803932E-12
(PID.TID 0000.0001) // =======================================================
(PID.TID 0000.0001) // Begin MONITOR dynamic field statistics
(PID.TID 0000.0001) // =======================================================
(PID.TID 0000.0001) %MON time_tsnumber                =                   522
(PID.TID 0000.0001) %MON time_secondsf                =   5.2200000000000E+04
(PID.TID 0000.0001) %MON dynstat_eta_max              =   5.7989431212404E+00
(PID.TID 0000.0001) %MON dynstat_eta_min              =  -1.4199381519674E+01
(PID.TID 0000.0001) %MON dynstat_eta_mean             =  -2.5087159405043E+00
(PID.TID 0000.0001) %MON dynstat_eta_sd               =   4.9515581786872E+00
(PID.TID 0000.0001) %MON dynstat_eta_del2             =   2.0714166312372E-01
(PID.TID 0000.0001) %MON dynstat_uvel_max             =   1.4626846714512E-03
(PID.TID 0000.0001) %MON dynstat_uvel_min             =  -5.2598565727404E-03
(PID.TID 0000.0001) %MON dynstat_uvel_mean            =  -1.1838043792900E-07
(PID.TID 0000.0001) %MON dynstat_uvel_sd              =   2.0681332354254E-04
(PID.TID 0000.0001) %MON dynstat_uvel_del2            =   3.4772543014687E-07
(PID.TID 0000.0001) %MON dynstat_vvel_max             =   4.7497633715558E-03
(PID.TID 0000.0001) %MON dynstat_vvel_min             =  -2.3285009995551E-03
(PID.TID 0000.0001) %MON dynstat_vvel_mean            =   1.4976747278710E-05
(PID.TID 0000.0001) %MON dynstat_vvel_sd              =   1.6268871053733E-04
(PID.TID 0000.0001) %MON dynstat_vvel_del2            =   3.5948686691023E-07
(PID.TID 0000.0001) %MON dynstat_wvel_max             =   1.5617895328929E-04
(PID.TID 0000.0001) %MON dynstat_wvel_min             =  -1.9157897774889E-04
(PID.TID 0000.0001) %MON dynstat_wvel_mean            =   6.6097235365458E-09
(PID.TID 0000.0001) %MON dynstat_wvel_sd              =   1.9699412510160E-05
(PID.TID 0000.0001) %MON dynstat_wvel_del2            =   9.2059675640779E-08
(PID.TID 0000.0001) %MON dynstat_theta_max            =   1.2000000000000E+00
(PID.TID 0000.0001) %MON dynstat_theta_min            =  -1.0000000000000E+00
(PID.TID 0000.0001) %MON dynstat_theta_mean           =   5.6901539675852E-01
(PID.TID 0000.0001) %MON dynstat_theta_sd             =   8.6853761425035E-01
(PID.TID 0000.0001) %MON dynstat_theta_del2           =   1.1488641651457E-06
(PID.TID 0000.0001) %MON dynstat_salt_max             =   3.4700000000000E+01
(PID.TID 0000.0001) %MON dynstat_salt_min             =   3.4000000000000E+01
(PID.TID 0000.0001) %MON dynstat_salt_mean            =   3.4499220296969E+01
(PID.TID 0000.0001) %MON dynstat_salt_sd              =   2.7634949584442E-01
(PID.TID 0000.0001) %MON dynstat_salt_del2            =   4.1790834509792E-07
(PID.TID 0000.0001) %MON advcfl_uvel_max              =   5.2598565727404E-04
(PID.TID 0000.0001) %MON advcfl_vvel_max              =   4.7497633715558E-04
(PID.TID 0000.0001) %MON advcfl_wvel_max              =   9.5789488874447E-04
(PID.TID 0000.0001) %MON advcfl_W_hf_max              =   9.5789488874447E-04
(PID.TID 0000.0001) %MON pe_b_mean                    =  -8.3129415435676E-01
(PID.TID 0000.0001) %MON ke_max                       =   8.5741083987038E-06
(PID.TID 0000.0001) %MON ke_mean                      =   3.4306140375499E-08
(PID.TID 0000.0001) %MON ke_vol                       =   4.2725183077060E+12
(PID.TID 0000.0001) // =======================================================
(PID.TID 0000.0001) // End MONITOR dynamic field statistics
(PID.TID 0000.0001) // =======================================================
(PID.TID 0000.0001) // =======================================================
(PID.TID 0000.0001) // Begin OBCS MONITOR field statistics
(PID.TID 0000.0001) // =======================================================
(PID.TID 0000.0001) %MON obc_N_vVel_max               =   1.4743189872628E-05
(PID.TID 0000.0001) %MON obc_N_vVel_min               =   1.4743189872628E-05
(PID.TID 0000.0001) %MON obc_N_vVel_mean              =   1.4743189872628E-05
(PID.TID 0000.0001) %MON obc_N_vVel_sd                =   4.7449786404080E-12
(PID.TID 0000.0001) %MON obc_N_vVel_Int               =   9.7305053159342E+02
(PID.TID 0000.0001) // =======================================================
(PID.TID 0000.0001) // End OBCS MONITOR field statistics
(PID.TID 0000.0001) // =======================================================
 cg2d: Sum(rhs),rhsMax =   4.51730662799258E+00  2.99894168401122E+02
(PID.TID 0000.0001)      cg2d_init_res =   6.01358250709064E-06
(PID.TID 0000.0001)      cg2d_iters(min,last) =      -1      77
(PID.TID 0000.0001)      cg2d_last_res =   9.96770534958468E-12
(PID.TID 0000.0001) // =======================================================
(PID.TID 0000.0001) // Begin MONITOR dynamic field statistics
(PID.TID 0000.0001) // =======================================================
(PID.TID 0000.0001) %MON time_tsnumber                =                   523
(PID.TID 0000.0001) %MON time_secondsf                =   5.2300000000000E+04
(PID.TID 0000.0001) %MON dynstat_eta_max              =   5.7989195905622E+00
(PID.TID 0000.0001) %MON dynstat_eta_min              =  -1.4199395838553E+01
(PID.TID 0000.0001) %MON dynstat_eta_mean             =  -2.5087294715087E+00
(PID.TID 0000.0001) %MON dynstat_eta_sd               =   4.9515626748187E+00
(PID.TID 0000.0001) %MON dynstat_eta_del2             =   2.0714167258766E-01
(PID.TID 0000.0001) %MON dynstat_uvel_max             =   1.4655643335830E-03
(PID.TID 0000.0001) %MON dynstat_uvel_min             =  -5.2760551946500E-03
(PID.TID 0000.0001) %MON dynstat_uvel_mean            =  -1.1893676127775E-07
(PID.TID 0000.0001) %MON dynstat_uvel_sd              =   2.0717236259388E-04
(PID.TID 0000.0001) %MON dynstat_uvel_del2            =   3.4826041362260E-07
(PID.TID 0000.0001) %MON dynstat_vvel_max             =   4.7598313348984E-03
(PID.TID 0000.0001) %MON dynstat_vvel_min             =  -2.3268945070001E-03
(PID.TID 0000.0001) %MON dynstat_vvel_mean            =   1.4976525078356E-05
(PID.TID 0000.0001) %MON dynstat_vvel_sd              =   1.6332493827584E-04
(PID.TID 0000.0001) %MON dynstat_vvel_del2            =   3.6081366443995E-07
(PID.TID 0000.0001) %MON dynstat_wvel_max             =   1.5689615370567E-04
(PID.TID 0000.0001) %MON dynstat_wvel_min             =  -1.9223204324317E-04
(PID.TID 0000.0001) %MON dynstat_wvel_mean            =   6.6067880703550E-09
(PID.TID 0000.0001) %MON dynstat_wvel_sd              =   2.0163583777772E-05
(PID.TID 0000.0001) %MON dynstat_wvel_del2            =   9.2276896259966E-08
(PID.TID 0000.0001) %MON dynstat_theta_max            =   1.2000000000000E+00
(PID.TID 0000.0001) %MON dynstat_theta_min            =  -1.0000000000000E+00
(PID.TID 0000.0001) %MON dynstat_theta_mean           =   5.6901506030578E-01
(PID.TID 0000.0001) %MON dynstat_theta_sd             =   8.6853743409604E-01
(PID.TID 0000.0001) %MON dynstat_theta_del2           =   1.1476989636662E-06
(PID.TID 0000.0001) %MON dynstat_salt_max             =   3.4700000000000E+01
(PID.TID 0000.0001) %MON dynstat_salt_min             =   3.4000000000000E+01
(PID.TID 0000.0001) %MON dynstat_salt_mean            =   3.4499220162366E+01
(PID.TID 0000.0001) %MON dynstat_salt_sd              =   2.7634942884414E-01
(PID.TID 0000.0001) %MON dynstat_salt_del2            =   4.1781368820589E-07
(PID.TID 0000.0001) %MON advcfl_uvel_max              =   5.2760551946500E-04
(PID.TID 0000.0001) %MON advcfl_vvel_max              =   4.7598313348984E-04
(PID.TID 0000.0001) %MON advcfl_wvel_max              =   9.6116021621584E-04
(PID.TID 0000.0001) %MON advcfl_W_hf_max              =   9.6116021621584E-04
(PID.TID 0000.0001) %MON pe_b_mean                    =  -8.3129801771228E-01
(PID.TID 0000.0001) %MON ke_max                       =   8.6243681488079E-06
(PID.TID 0000.0001) %MON ke_mean                      =   3.4482683601517E-08
(PID.TID 0000.0001) %MON ke_vol                       =   4.2725182273134E+12
(PID.TID 0000.0001) // =======================================================
(PID.TID 0000.0001) // End MONITOR dynamic field statistics
(PID.TID 0000.0001) // =======================================================
(PID.TID 0000.0001) // =======================================================
(PID.TID 0000.0001) // Begin OBCS MONITOR field statistics
(PID.TID 0000.0001) // =======================================================
(PID.TID 0000.0001) %MON obc_N_vVel_max               =   1.4743195983190E-05
(PID.TID 0000.0001) %MON obc_N_vVel_min               =   1.4743195983190E-05
(PID.TID 0000.0001) %MON obc_N_vVel_mean              =   1.4743195983190E-05
(PID.TID 0000.0001) %MON obc_N_vVel_sd                =   4.4671839314989E-12
(PID.TID 0000.0001) %MON obc_N_vVel_Int               =   9.7305093489053E+02
(PID.TID 0000.0001) // =======================================================
(PID.TID 0000.0001) // End OBCS MONITOR field statistics
(PID.TID 0000.0001) // =======================================================
 cg2d: Sum(rhs),rhsMax =   4.51732984272517E+00  2.99894244300270E+02
(PID.TID 0000.0001)      cg2d_init_res =   6.01778299289973E-06
(PID.TID 0000.0001)      cg2d_iters(min,last) =      -1      77
(PID.TID 0000.0001)      cg2d_last_res =   9.90034126587167E-12
(PID.TID 0000.0001) // =======================================================
(PID.TID 0000.0001) // Begin MONITOR dynamic field statistics
(PID.TID 0000.0001) // =======================================================
(PID.TID 0000.0001) %MON time_tsnumber                =                   524
(PID.TID 0000.0001) %MON time_secondsf                =   5.2400000000000E+04
(PID.TID 0000.0001) %MON dynstat_eta_max              =   5.7988960454571E+00
(PID.TID 0000.0001) %MON dynstat_eta_min              =  -1.4199410153781E+01
(PID.TID 0000.0001) %MON dynstat_eta_mean             =  -2.5087429989613E+00
(PID.TID 0000.0001) %MON dynstat_eta_sd               =   4.9515671696919E+00
(PID.TID 0000.0001) %MON dynstat_eta_del2             =   2.0714168207177E-01
(PID.TID 0000.0001) %MON dynstat_uvel_max             =   1.4684377482288E-03
(PID.TID 0000.0001) %MON dynstat_uvel_min             =  -5.2922899662642E-03
(PID.TID 0000.0001) %MON dynstat_uvel_mean            =  -1.1939907865794E-07
(PID.TID 0000.0001) %MON dynstat_uvel_sd              =   2.0753134491486E-04
(PID.TID 0000.0001) %MON dynstat_uvel_del2            =   3.4879902472502E-07
(PID.TID 0000.0001) %MON dynstat_vvel_max             =   4.7699054363047E-03
(PID.TID 0000.0001) %MON dynstat_vvel_min             =  -2.3252609849091E-03
(PID.TID 0000.0001) %MON dynstat_vvel_mean            =   1.4976006539689E-05
(PID.TID 0000.0001) %MON dynstat_vvel_sd              =   1.6404017791096E-04
(PID.TID 0000.0001) %MON dynstat_vvel_del2            =   3.6244830288614E-07
(PID.TID 0000.0001) %MON dynstat_wvel_max             =   1.5761507964211E-04
(PID.TID 0000.0001) %MON dynstat_wvel_min             =  -1.9288618995296E-04
(PID.TID 0000.0001) %MON dynstat_wvel_mean            =   6.6049842032400E-09
(PID.TID 0000.0001) %MON dynstat_wvel_sd              =   2.0715071981573E-05
(PID.TID 0000.0001) %MON dynstat_wvel_del2            =   9.2904827488750E-08
(PID.TID 0000.0001) %MON dynstat_theta_max            =   1.2000000000000E+00
(PID.TID 0000.0001) %MON dynstat_theta_min            =  -1.0000000000000E+00
(PID.TID 0000.0001) %MON dynstat_theta_mean           =   5.6901472333165E-01
(PID.TID 0000.0001) %MON dynstat_theta_sd             =   8.6853725370276E-01
(PID.TID 0000.0001) %MON dynstat_theta_del2           =   1.1459211587764E-06
(PID.TID 0000.0001) %MON dynstat_salt_max             =   3.4700000000000E+01
(PID.TID 0000.0001) %MON dynstat_salt_min             =   3.4000000000000E+01
(PID.TID 0000.0001) %MON dynstat_salt_mean            =   3.4499220027567E+01
(PID.TID 0000.0001) %MON dynstat_salt_sd              =   2.7634936174837E-01
(PID.TID 0000.0001) %MON dynstat_salt_del2            =   4.1754999480728E-07
(PID.TID 0000.0001) %MON advcfl_uvel_max              =   5.2922899662642E-04
(PID.TID 0000.0001) %MON advcfl_vvel_max              =   4.7699054363047E-04
(PID.TID 0000.0001) %MON advcfl_wvel_max              =   9.6443094976482E-04
(PID.TID 0000.0001) %MON advcfl_W_hf_max              =   9.6443094976482E-04
(PID.TID 0000.0001) %MON pe_b_mean                    =  -8.3130187978081E-01
(PID.TID 0000.0001) %MON ke_max                       =   8.6749008408315E-06
(PID.TID 0000.0001) %MON ke_mean                      =   3.4672698854358E-08
(PID.TID 0000.0001) %MON ke_vol                       =   4.2725181469392E+12
(PID.TID 0000.0001) // =======================================================
(PID.TID 0000.0001) // End MONITOR dynamic field statistics
(PID.TID 0000.0001) // =======================================================
(PID.TID 0000.0001) // =======================================================
(PID.TID 0000.0001) // Begin OBCS MONITOR field statistics
(PID.TID 0000.0001) // =======================================================
(PID.TID 0000.0001) %MON obc_N_vVel_max               =   1.4742801423473E-05
(PID.TID 0000.0001) %MON obc_N_vVel_min               =   1.4742801423473E-05
(PID.TID 0000.0001) %MON obc_N_vVel_mean              =   1.4742801423473E-05
(PID.TID 0000.0001) %MON obc_N_vVel_sd                =   1.8118700439242E-12
(PID.TID 0000.0001) %MON obc_N_vVel_Int               =   9.7302489394919E+02
(PID.TID 0000.0001) // =======================================================
(PID.TID 0000.0001) // End OBCS MONITOR field statistics
(PID.TID 0000.0001) // =======================================================
 cg2d: Sum(rhs),rhsMax =   4.51735305033955E+00  2.99894320203718E+02
(PID.TID 0000.0001)      cg2d_init_res =   6.02473143753779E-06
(PID.TID 0000.0001)      cg2d_iters(min,last) =      -1      77
(PID.TID 0000.0001)      cg2d_last_res =   9.83869230648362E-12
(PID.TID 0000.0001) // =======================================================
(PID.TID 0000.0001) // Begin MONITOR dynamic field statistics
(PID.TID 0000.0001) // =======================================================
(PID.TID 0000.0001) %MON time_tsnumber                =                   525
(PID.TID 0000.0001) %MON time_secondsf                =   5.2500000000000E+04
(PID.TID 0000.0001) %MON dynstat_eta_max              =   5.7988724883946E+00
(PID.TID 0000.0001) %MON dynstat_eta_min              =  -1.4199424463213E+01
(PID.TID 0000.0001) %MON dynstat_eta_mean             =  -2.5087565225033E+00
(PID.TID 0000.0001) %MON dynstat_eta_sd               =   4.9515716632950E+00
(PID.TID 0000.0001) %MON dynstat_eta_del2             =   2.0714169157583E-01
(PID.TID 0000.0001) %MON dynstat_uvel_max             =   1.4713052773905E-03
(PID.TID 0000.0001) %MON dynstat_uvel_min             =  -5.3085609288566E-03
(PID.TID 0000.0001) %MON dynstat_uvel_mean            =  -1.1976818966509E-07
(PID.TID 0000.0001) %MON dynstat_uvel_sd              =   2.0789043816756E-04
(PID.TID 0000.0001) %MON dynstat_uvel_del2            =   3.4934166607617E-07
(PID.TID 0000.0001) %MON dynstat_vvel_max             =   4.7799857472706E-03
(PID.TID 0000.0001) %MON dynstat_vvel_min             =  -2.3236007315397E-03
(PID.TID 0000.0001) %MON dynstat_vvel_mean            =   1.4975239994452E-05
(PID.TID 0000.0001) %MON dynstat_vvel_sd              =   1.6481153727940E-04
(PID.TID 0000.0001) %MON dynstat_vvel_del2            =   3.6433010970857E-07
(PID.TID 0000.0001) %MON dynstat_wvel_max             =   1.5833575060375E-04
(PID.TID 0000.0001) %MON dynstat_wvel_min             =  -1.9354140691160E-04
(PID.TID 0000.0001) %MON dynstat_wvel_mean            =   6.6040235911179E-09
(PID.TID 0000.0001) %MON dynstat_wvel_sd              =   2.1324802904610E-05
(PID.TID 0000.0001) %MON dynstat_wvel_del2            =   9.3903259363073E-08
(PID.TID 0000.0001) %MON dynstat_theta_max            =   1.2000000000000E+00
(PID.TID 0000.0001) %MON dynstat_theta_min            =  -1.0000000000000E+00
(PID.TID 0000.0001) %MON dynstat_theta_mean           =   5.6901438585585E-01
(PID.TID 0000.0001) %MON dynstat_theta_sd             =   8.6853707306250E-01
(PID.TID 0000.0001) %MON dynstat_theta_del2           =   1.1436084221118E-06
(PID.TID 0000.0001) %MON dynstat_salt_max             =   3.4700000000000E+01
(PID.TID 0000.0001) %MON dynstat_salt_min             =   3.4000000000000E+01
(PID.TID 0000.0001) %MON dynstat_salt_mean            =   3.4499219892577E+01
(PID.TID 0000.0001) %MON dynstat_salt_sd              =   2.7634929455437E-01
(PID.TID 0000.0001) %MON dynstat_salt_del2            =   4.1713929203554E-07
(PID.TID 0000.0001) %MON advcfl_uvel_max              =   5.3085609288566E-04
(PID.TID 0000.0001) %MON advcfl_vvel_max              =   4.7799857472706E-04
(PID.TID 0000.0001) %MON advcfl_wvel_max              =   9.6770703455802E-04
(PID.TID 0000.0001) %MON advcfl_W_hf_max              =   9.6770703455802E-04
(PID.TID 0000.0001) %MON pe_b_mean                    =  -8.3130574050647E-01
(PID.TID 0000.0001) %MON ke_max                       =   8.7257078491348E-06
(PID.TID 0000.0001) %MON ke_mean                      =   3.4872617654199E-08
(PID.TID 0000.0001) %MON ke_vol                       =   4.2725180665862E+12
(PID.TID 0000.0001) // =======================================================
(PID.TID 0000.0001) // End MONITOR dynamic field statistics
(PID.TID 0000.0001) // =======================================================
(PID.TID 0000.0001) // =======================================================
(PID.TID 0000.0001) // Begin OBCS MONITOR field statistics
(PID.TID 0000.0001) // =======================================================
(PID.TID 0000.0001) %MON obc_N_vVel_max               =   1.4742082362096E-05
(PID.TID 0000.0001) %MON obc_N_vVel_min               =   1.4742082362096E-05
(PID.TID 0000.0001) %MON obc_N_vVel_mean              =   1.4742082362096E-05
(PID.TID 0000.0001) %MON obc_N_vVel_sd                =  -2.6107888083705E-24
(PID.TID 0000.0001) %MON obc_N_vVel_Int               =   9.7297743589835E+02
(PID.TID 0000.0001) // =======================================================
(PID.TID 0000.0001) // End OBCS MONITOR field statistics
(PID.TID 0000.0001) // =======================================================
 cg2d: Sum(rhs),rhsMax =   4.51737625030162E+00  2.99894396115690E+02
(PID.TID 0000.0001)      cg2d_init_res =   6.03410404972009E-06
(PID.TID 0000.0001)      cg2d_iters(min,last) =      -1      77
(PID.TID 0000.0001)      cg2d_last_res =   9.79946093223264E-12
(PID.TID 0000.0001) // =======================================================
(PID.TID 0000.0001) // Begin MONITOR dynamic field statistics
(PID.TID 0000.0001) // =======================================================
(PID.TID 0000.0001) %MON time_tsnumber                =                   526
(PID.TID 0000.0001) %MON time_secondsf                =   5.2600000000000E+04
(PID.TID 0000.0001) %MON dynstat_eta_max              =   5.7988489220944E+00
(PID.TID 0000.0001) %MON dynstat_eta_min              =  -1.4199438763845E+01
(PID.TID 0000.0001) %MON dynstat_eta_mean             =  -2.5087700418733E+00
(PID.TID 0000.0001) %MON dynstat_eta_sd               =   4.9515761556405E+00
(PID.TID 0000.0001) %MON dynstat_eta_del2             =   2.0714170109986E-01
(PID.TID 0000.0001) %MON dynstat_uvel_max             =   1.4741670287748E-03
(PID.TID 0000.0001) %MON dynstat_uvel_min             =  -5.3248681760678E-03
(PID.TID 0000.0001) %MON dynstat_uvel_mean            =  -1.2003651484712E-07
(PID.TID 0000.0001) %MON dynstat_uvel_sd              =   2.0824980455380E-04
(PID.TID 0000.0001) %MON dynstat_uvel_del2            =   3.4988875329171E-07
(PID.TID 0000.0001) %MON dynstat_vvel_max             =   4.7900723140284E-03
(PID.TID 0000.0001) %MON dynstat_vvel_min             =  -2.3219141608024E-03
(PID.TID 0000.0001) %MON dynstat_vvel_mean            =   1.4974271960661E-05
(PID.TID 0000.0001) %MON dynstat_vvel_sd              =   1.6561396075724E-04
(PID.TID 0000.0001) %MON dynstat_vvel_del2            =   3.6638673863954E-07
(PID.TID 0000.0001) %MON dynstat_wvel_max             =   1.5905816800956E-04
(PID.TID 0000.0001) %MON dynstat_wvel_min             =  -1.9419770353696E-04
(PID.TID 0000.0001) %MON dynstat_wvel_mean            =   6.6034689459474E-09
(PID.TID 0000.0001) %MON dynstat_wvel_sd              =   2.1962927271894E-05
(PID.TID 0000.0001) %MON dynstat_wvel_del2            =   9.5212405118183E-08
(PID.TID 0000.0001) %MON dynstat_theta_max            =   1.2000000000000E+00
(PID.TID 0000.0001) %MON dynstat_theta_min            =  -1.0000000000000E+00
(PID.TID 0000.0001) %MON dynstat_theta_mean           =   5.6901404789906E-01
(PID.TID 0000.0001) %MON dynstat_theta_sd             =   8.6853689218105E-01
(PID.TID 0000.0001) %MON dynstat_theta_del2           =   1.1408611701973E-06
(PID.TID 0000.0001) %MON dynstat_salt_max             =   3.4700000000000E+01
(PID.TID 0000.0001) %MON dynstat_salt_min             =   3.4000000000000E+01
(PID.TID 0000.0001) %MON dynstat_salt_mean            =   3.4499219757403E+01
(PID.TID 0000.0001) %MON dynstat_salt_sd              =   2.7634922726411E-01
(PID.TID 0000.0001) %MON dynstat_salt_del2            =   4.1660998436758E-07
(PID.TID 0000.0001) %MON advcfl_uvel_max              =   5.3248681760678E-04
(PID.TID 0000.0001) %MON advcfl_vvel_max              =   4.7900723140284E-04
(PID.TID 0000.0001) %MON advcfl_wvel_max              =   9.7098851768480E-04
(PID.TID 0000.0001) %MON advcfl_W_hf_max              =   9.7098851768480E-04
(PID.TID 0000.0001) %MON pe_b_mean                    =  -8.3130959984250E-01
(PID.TID 0000.0001) %MON ke_max                       =   8.7767905179447E-06
(PID.TID 0000.0001) %MON ke_mean                      =   3.5078454257758E-08
(PID.TID 0000.0001) %MON ke_vol                       =   4.2725179862563E+12
(PID.TID 0000.0001) // =======================================================
(PID.TID 0000.0001) // End MONITOR dynamic field statistics
(PID.TID 0000.0001) // =======================================================
(PID.TID 0000.0001) // =======================================================
(PID.TID 0000.0001) // Begin OBCS MONITOR field statistics
(PID.TID 0000.0001) // =======================================================
(PID.TID 0000.0001) %MON obc_N_vVel_max               =   1.4741126520181E-05
(PID.TID 0000.0001) %MON obc_N_vVel_min               =   1.4741126520181E-05
(PID.TID 0000.0001) %MON obc_N_vVel_mean              =   1.4741126520181E-05
(PID.TID 0000.0001) %MON obc_N_vVel_sd                =   1.0785280415468E-12
(PID.TID 0000.0001) %MON obc_N_vVel_Int               =   9.7291435033195E+02
(PID.TID 0000.0001) // =======================================================
(PID.TID 0000.0001) // End OBCS MONITOR field statistics
(PID.TID 0000.0001) // =======================================================
 cg2d: Sum(rhs),rhsMax =   4.51739944223815E+00  2.99894472040177E+02
(PID.TID 0000.0001)      cg2d_init_res =   6.04546433169298E-06
(PID.TID 0000.0001)      cg2d_iters(min,last) =      -1      77
(PID.TID 0000.0001)      cg2d_last_res =   9.78835933895893E-12
(PID.TID 0000.0001) // =======================================================
(PID.TID 0000.0001) // Begin MONITOR dynamic field statistics
(PID.TID 0000.0001) // =======================================================
(PID.TID 0000.0001) %MON time_tsnumber                =                   527
(PID.TID 0000.0001) %MON time_secondsf                =   5.2700000000000E+04
(PID.TID 0000.0001) %MON dynstat_eta_max              =   5.7988253493615E+00
(PID.TID 0000.0001) %MON dynstat_eta_min              =  -1.4199453052341E+01
(PID.TID 0000.0001) %MON dynstat_eta_mean             =  -2.5087835568974E+00
(PID.TID 0000.0001) %MON dynstat_eta_sd               =   4.9515806467569E+00
(PID.TID 0000.0001) %MON dynstat_eta_del2             =   2.0714171064389E-01
(PID.TID 0000.0001) %MON dynstat_uvel_max             =   1.4770229758403E-03
(PID.TID 0000.0001) %MON dynstat_uvel_min             =  -5.3412118115901E-03
(PID.TID 0000.0001) %MON dynstat_uvel_mean            =  -1.2018752986026E-07
(PID.TID 0000.0001) %MON dynstat_uvel_sd              =   2.0860959547676E-04
(PID.TID 0000.0001) %MON dynstat_uvel_del2            =   3.5044069164554E-07
(PID.TID 0000.0001) %MON dynstat_vvel_max             =   4.8001652282938E-03
(PID.TID 0000.0001) %MON dynstat_vvel_min             =  -2.3202017295620E-03
(PID.TID 0000.0001) %MON dynstat_vvel_mean            =   1.4973143696697E-05
(PID.TID 0000.0001) %MON dynstat_vvel_sd              =   1.6642131147765E-04
(PID.TID 0000.0001) %MON dynstat_vvel_del2            =   3.6853742437696E-07
(PID.TID 0000.0001) %MON dynstat_wvel_max             =   1.5978233614770E-04
(PID.TID 0000.0001) %MON dynstat_wvel_min             =  -1.9485507890075E-04
(PID.TID 0000.0001) %MON dynstat_wvel_mean            =   6.6029538409396E-09
(PID.TID 0000.0001) %MON dynstat_wvel_sd              =   2.2600454673917E-05
(PID.TID 0000.0001) %MON dynstat_wvel_del2            =   9.6757476641952E-08
(PID.TID 0000.0001) %MON dynstat_theta_max            =   1.2000000000000E+00
(PID.TID 0000.0001) %MON dynstat_theta_min            =  -1.0000000000000E+00
(PID.TID 0000.0001) %MON dynstat_theta_mean           =   5.6901370948267E-01
(PID.TID 0000.0001) %MON dynstat_theta_sd             =   8.6853671104683E-01
(PID.TID 0000.0001) %MON dynstat_theta_del2           =   1.1378002850368E-06
(PID.TID 0000.0001) %MON dynstat_salt_max             =   3.4700000000000E+01
(PID.TID 0000.0001) %MON dynstat_salt_min             =   3.4000000000000E+01
(PID.TID 0000.0001) %MON dynstat_salt_mean            =   3.4499219622053E+01
(PID.TID 0000.0001) %MON dynstat_salt_sd              =   2.7634915987393E-01
(PID.TID 0000.0001) %MON dynstat_salt_del2            =   4.1599586043479E-07
(PID.TID 0000.0001) %MON advcfl_uvel_max              =   5.3412118115901E-04
(PID.TID 0000.0001) %MON advcfl_vvel_max              =   4.8001652282938E-04
(PID.TID 0000.0001) %MON advcfl_wvel_max              =   9.7427539450377E-04
(PID.TID 0000.0001) %MON advcfl_W_hf_max              =   9.7427539450377E-04
(PID.TID 0000.0001) %MON pe_b_mean                    =  -8.3131345775053E-01
(PID.TID 0000.0001) %MON ke_max                       =   8.8281502032602E-06
(PID.TID 0000.0001) %MON ke_mean                      =   3.5285965601706E-08
(PID.TID 0000.0001) %MON ke_vol                       =   4.2725179059513E+12
(PID.TID 0000.0001) // =======================================================
(PID.TID 0000.0001) // End MONITOR dynamic field statistics
(PID.TID 0000.0001) // =======================================================
(PID.TID 0000.0001) // =======================================================
(PID.TID 0000.0001) // Begin OBCS MONITOR field statistics
(PID.TID 0000.0001) // =======================================================
(PID.TID 0000.0001) %MON obc_N_vVel_max               =   1.4740012205520E-05
(PID.TID 0000.0001) %MON obc_N_vVel_min               =   1.4740012205520E-05
(PID.TID 0000.0001) %MON obc_N_vVel_mean              =   1.4740012205520E-05
(PID.TID 0000.0001) %MON obc_N_vVel_sd                =   4.3021118309354E-12
(PID.TID 0000.0001) %MON obc_N_vVel_Int               =   9.7284080556429E+02
(PID.TID 0000.0001) // =======================================================
(PID.TID 0000.0001) // End OBCS MONITOR field statistics
(PID.TID 0000.0001) // =======================================================
 cg2d: Sum(rhs),rhsMax =   4.51742262590562E+00  2.99894547981298E+02
(PID.TID 0000.0001)      cg2d_init_res =   6.05827133014575E-06
(PID.TID 0000.0001)      cg2d_iters(min,last) =      -1      77
(PID.TID 0000.0001)      cg2d_last_res =   9.80063739033663E-12
(PID.TID 0000.0001) // =======================================================
(PID.TID 0000.0001) // Begin MONITOR dynamic field statistics
(PID.TID 0000.0001) // =======================================================
(PID.TID 0000.0001) %MON time_tsnumber                =                   528
(PID.TID 0000.0001) %MON time_secondsf                =   5.2800000000000E+04
(PID.TID 0000.0001) %MON dynstat_eta_max              =   5.7988017728260E+00
(PID.TID 0000.0001) %MON dynstat_eta_min              =  -1.4199467325439E+01
(PID.TID 0000.0001) %MON dynstat_eta_mean             =  -2.5087970674749E+00
(PID.TID 0000.0001) %MON dynstat_eta_sd               =   4.9515851366788E+00
(PID.TID 0000.0001) %MON dynstat_eta_del2             =   2.0714172020791E-01
(PID.TID 0000.0001) %MON dynstat_uvel_max             =   1.4798729984999E-03
(PID.TID 0000.0001) %MON dynstat_uvel_min             =  -5.3575919586510E-03
(PID.TID 0000.0001) %MON dynstat_uvel_mean            =  -1.2020217454122E-07
(PID.TID 0000.0001) %MON dynstat_uvel_sd              =   2.0896994637349E-04
(PID.TID 0000.0001) %MON dynstat_uvel_del2            =   3.5099785249551E-07
(PID.TID 0000.0001) %MON dynstat_vvel_max             =   4.8102646382338E-03
(PID.TID 0000.0001) %MON dynstat_vvel_min             =  -2.3184638728928E-03
(PID.TID 0000.0001) %MON dynstat_vvel_mean            =   1.4971891415243E-05
(PID.TID 0000.0001) %MON dynstat_vvel_sd              =   1.6720747028665E-04
(PID.TID 0000.0001) %MON dynstat_vvel_del2            =   3.7069653918329E-07
(PID.TID 0000.0001) %MON dynstat_wvel_max             =   1.6050825853010E-04
(PID.TID 0000.0001) %MON dynstat_wvel_min             =  -1.9551353101645E-04
(PID.TID 0000.0001) %MON dynstat_wvel_mean            =   6.6022021298870E-09
(PID.TID 0000.0001) %MON dynstat_wvel_sd              =   2.3210374410194E-05
(PID.TID 0000.0001) %MON dynstat_wvel_del2            =   9.8453846131936E-08
(PID.TID 0000.0001) %MON dynstat_theta_max            =   1.2000000000000E+00
(PID.TID 0000.0001) %MON dynstat_theta_min            =  -1.0000000000000E+00
(PID.TID 0000.0001) %MON dynstat_theta_mean           =   5.6901337062839E-01
(PID.TID 0000.0001) %MON dynstat_theta_sd             =   8.6853652963979E-01
(PID.TID 0000.0001) %MON dynstat_theta_del2           =   1.1345621876414E-06
(PID.TID 0000.0001) %MON dynstat_salt_max             =   3.4700000000000E+01
(PID.TID 0000.0001) %MON dynstat_salt_min             =   3.4000000000000E+01
(PID.TID 0000.0001) %MON dynstat_salt_mean            =   3.4499219486533E+01
(PID.TID 0000.0001) %MON dynstat_salt_sd              =   2.7634909237745E-01
(PID.TID 0000.0001) %MON dynstat_salt_del2            =   4.1533496117650E-07
(PID.TID 0000.0001) %MON advcfl_uvel_max              =   5.3575919586510E-04
(PID.TID 0000.0001) %MON advcfl_vvel_max              =   4.8102646382338E-04
(PID.TID 0000.0001) %MON advcfl_wvel_max              =   9.7756765508223E-04
(PID.TID 0000.0001) %MON advcfl_W_hf_max              =   9.7756765508223E-04
(PID.TID 0000.0001) %MON pe_b_mean                    =  -8.3131731420016E-01
(PID.TID 0000.0001) %MON ke_max                       =   8.8797883181860E-06
(PID.TID 0000.0001) %MON ke_mean                      =   3.5490825067985E-08
(PID.TID 0000.0001) %MON ke_vol                       =   4.2725178256720E+12
(PID.TID 0000.0001) // =======================================================
(PID.TID 0000.0001) // End MONITOR dynamic field statistics
(PID.TID 0000.0001) // =======================================================
(PID.TID 0000.0001) // =======================================================
(PID.TID 0000.0001) // Begin OBCS MONITOR field statistics
(PID.TID 0000.0001) // =======================================================
(PID.TID 0000.0001) %MON obc_N_vVel_max               =   1.4738806312673E-05
(PID.TID 0000.0001) %MON obc_N_vVel_min               =   1.4738806312673E-05
(PID.TID 0000.0001) %MON obc_N_vVel_mean              =   1.4738806312673E-05
(PID.TID 0000.0001) %MON obc_N_vVel_sd                =   2.9645900236586E-12
(PID.TID 0000.0001) %MON obc_N_vVel_Int               =   9.7276121663643E+02
(PID.TID 0000.0001) // =======================================================
(PID.TID 0000.0001) // End OBCS MONITOR field statistics
(PID.TID 0000.0001) // =======================================================
 cg2d: Sum(rhs),rhsMax =   4.51744580116065E+00  2.99894623943278E+02
(PID.TID 0000.0001)      cg2d_init_res =   6.07190734169607E-06
(PID.TID 0000.0001)      cg2d_iters(min,last) =      -1      77
(PID.TID 0000.0001)      cg2d_last_res =   9.82517435438029E-12
(PID.TID 0000.0001) // =======================================================
(PID.TID 0000.0001) // Begin MONITOR dynamic field statistics
(PID.TID 0000.0001) // =======================================================
(PID.TID 0000.0001) %MON time_tsnumber                =                   529
(PID.TID 0000.0001) %MON time_secondsf                =   5.2900000000000E+04
(PID.TID 0000.0001) %MON dynstat_eta_max              =   5.7987781946961E+00
(PID.TID 0000.0001) %MON dynstat_eta_min              =  -1.4199481580325E+01
(PID.TID 0000.0001) %MON dynstat_eta_mean             =  -2.5088105735615E+00
(PID.TID 0000.0001) %MON dynstat_eta_sd               =   4.9515896254463E+00
(PID.TID 0000.0001) %MON dynstat_eta_del2             =   2.0714172979213E-01
(PID.TID 0000.0001) %MON dynstat_uvel_max             =   1.4827169182228E-03
(PID.TID 0000.0001) %MON dynstat_uvel_min             =  -5.3740087563892E-03
(PID.TID 0000.0001) %MON dynstat_uvel_mean            =  -1.2006849533839E-07
(PID.TID 0000.0001) %MON dynstat_uvel_sd              =   2.0933097175794E-04
(PID.TID 0000.0001) %MON dynstat_uvel_del2            =   3.5156055077093E-07
(PID.TID 0000.0001) %MON dynstat_vvel_max             =   4.8203707530795E-03
(PID.TID 0000.0001) %MON dynstat_vvel_min             =  -2.3167009711660E-03
(PID.TID 0000.0001) %MON dynstat_vvel_mean            =   1.4970547884700E-05
(PID.TID 0000.0001) %MON dynstat_vvel_sd              =   1.6794740224938E-04
(PID.TID 0000.0001) %MON dynstat_vvel_del2            =   3.7277726786120E-07
(PID.TID 0000.0001) %MON dynstat_wvel_max             =   1.6140651703312E-04
(PID.TID 0000.0001) %MON dynstat_wvel_min             =  -1.9617305889272E-04
(PID.TID 0000.0001) %MON dynstat_wvel_mean            =   6.6010570810399E-09
(PID.TID 0000.0001) %MON dynstat_wvel_sd              =   2.3768355318630E-05
(PID.TID 0000.0001) %MON dynstat_wvel_del2            =   1.0021210503393E-07
(PID.TID 0000.0001) %MON dynstat_theta_max            =   1.2000000000000E+00
(PID.TID 0000.0001) %MON dynstat_theta_min            =  -1.0000000000000E+00
(PID.TID 0000.0001) %MON dynstat_theta_mean           =   5.6901303135793E-01
(PID.TID 0000.0001) %MON dynstat_theta_sd             =   8.6853634795610E-01
(PID.TID 0000.0001) %MON dynstat_theta_del2           =   1.1312936844954E-06
(PID.TID 0000.0001) %MON dynstat_salt_max             =   3.4700000000000E+01
(PID.TID 0000.0001) %MON dynstat_salt_min             =   3.4000000000000E+01
(PID.TID 0000.0001) %MON dynstat_salt_mean            =   3.4499219350850E+01
(PID.TID 0000.0001) %MON dynstat_salt_sd              =   2.7634902477338E-01
(PID.TID 0000.0001) %MON dynstat_salt_del2            =   4.1466803079642E-07
(PID.TID 0000.0001) %MON advcfl_uvel_max              =   5.3740087563892E-04
(PID.TID 0000.0001) %MON advcfl_vvel_max              =   4.8203707530795E-04
(PID.TID 0000.0001) %MON advcfl_wvel_max              =   9.8086529446360E-04
(PID.TID 0000.0001) %MON advcfl_W_hf_max              =   9.8086529446360E-04
(PID.TID 0000.0001) %MON pe_b_mean                    =  -8.3132116916950E-01
(PID.TID 0000.0001) %MON ke_max                       =   8.9317063492998E-06
(PID.TID 0000.0001) %MON ke_mean                      =   3.5688802758134E-08
(PID.TID 0000.0001) %MON ke_vol                       =   4.2725177454192E+12
(PID.TID 0000.0001) // =======================================================
(PID.TID 0000.0001) // End MONITOR dynamic field statistics
(PID.TID 0000.0001) // =======================================================
(PID.TID 0000.0001) // =======================================================
(PID.TID 0000.0001) // Begin OBCS MONITOR field statistics
(PID.TID 0000.0001) // =======================================================
(PID.TID 0000.0001) %MON obc_N_vVel_max               =   1.4737560859257E-05
(PID.TID 0000.0001) %MON obc_N_vVel_min               =   1.4737560859256E-05
(PID.TID 0000.0001) %MON obc_N_vVel_mean              =   1.4737560859257E-05
(PID.TID 0000.0001) %MON obc_N_vVel_sd                =  -9.6935228033558E-24
(PID.TID 0000.0001) %MON obc_N_vVel_Int               =   9.7267901671094E+02
(PID.TID 0000.0001) // =======================================================
(PID.TID 0000.0001) // End OBCS MONITOR field statistics
(PID.TID 0000.0001) // =======================================================
 cg2d: Sum(rhs),rhsMax =   4.51746896793857E+00  2.99894699930368E+02
(PID.TID 0000.0001)      cg2d_init_res =   6.08568971260469E-06
(PID.TID 0000.0001)      cg2d_iters(min,last) =      -1      77
(PID.TID 0000.0001)      cg2d_last_res =   9.85002953543231E-12
(PID.TID 0000.0001) // =======================================================
(PID.TID 0000.0001) // Begin MONITOR dynamic field statistics
(PID.TID 0000.0001) // =======================================================
(PID.TID 0000.0001) %MON time_tsnumber                =                   530
(PID.TID 0000.0001) %MON time_secondsf                =   5.3000000000000E+04
(PID.TID 0000.0001) %MON dynstat_eta_max              =   5.7987546166638E+00
(PID.TID 0000.0001) %MON dynstat_eta_min              =  -1.4199495814882E+01
(PID.TID 0000.0001) %MON dynstat_eta_mean             =  -2.5088240751568E+00
(PID.TID 0000.0001) %MON dynstat_eta_sd               =   4.9515941130978E+00
(PID.TID 0000.0001) %MON dynstat_eta_del2             =   2.0714173939658E-01
(PID.TID 0000.0001) %MON dynstat_uvel_max             =   1.4855545211967E-03
(PID.TID 0000.0001) %MON dynstat_uvel_min             =  -5.3904623542627E-03
(PID.TID 0000.0001) %MON dynstat_uvel_mean            =  -1.1979034941524E-07
(PID.TID 0000.0001) %MON dynstat_uvel_sd              =   2.0969276082458E-04
(PID.TID 0000.0001) %MON dynstat_uvel_del2            =   3.5212902415010E-07
(PID.TID 0000.0001) %MON dynstat_vvel_max             =   4.8304838377925E-03
(PID.TID 0000.0001) %MON dynstat_vvel_min             =  -2.3149133436711E-03
(PID.TID 0000.0001) %MON dynstat_vvel_mean            =   1.4969144294482E-05
(PID.TID 0000.0001) %MON dynstat_vvel_sd              =   1.6861815063192E-04
(PID.TID 0000.0001) %MON dynstat_vvel_del2            =   3.7469523884539E-07
(PID.TID 0000.0001) %MON dynstat_wvel_max             =   1.6886034280536E-04
(PID.TID 0000.0001) %MON dynstat_wvel_min             =  -1.9683366298452E-04
(PID.TID 0000.0001) %MON dynstat_wvel_mean            =   6.5994793585661E-09
(PID.TID 0000.0001) %MON dynstat_wvel_sd              =   2.4253148357534E-05
(PID.TID 0000.0001) %MON dynstat_wvel_del2            =   1.0194256038445E-07
(PID.TID 0000.0001) %MON dynstat_theta_max            =   1.2000000000000E+00
(PID.TID 0000.0001) %MON dynstat_theta_min            =  -1.0000000000000E+00
(PID.TID 0000.0001) %MON dynstat_theta_mean           =   5.6901269169318E-01
(PID.TID 0000.0001) %MON dynstat_theta_sd             =   8.6853616599572E-01
(PID.TID 0000.0001) %MON dynstat_theta_del2           =   1.1281465622448E-06
(PID.TID 0000.0001) %MON dynstat_salt_max             =   3.4700000000000E+01
(PID.TID 0000.0001) %MON dynstat_salt_min             =   3.4000000000000E+01
(PID.TID 0000.0001) %MON dynstat_salt_mean            =   3.4499219215011E+01
(PID.TID 0000.0001) %MON dynstat_salt_sd              =   2.7634895706181E-01
(PID.TID 0000.0001) %MON dynstat_salt_del2            =   4.1403692743259E-07
(PID.TID 0000.0001) %MON advcfl_uvel_max              =   5.3904623542627E-04
(PID.TID 0000.0001) %MON advcfl_vvel_max              =   4.8304838377925E-04
(PID.TID 0000.0001) %MON advcfl_wvel_max              =   9.8416831492261E-04
(PID.TID 0000.0001) %MON advcfl_W_hf_max              =   9.8416831492261E-04
(PID.TID 0000.0001) %MON pe_b_mean                    =  -8.3132502264528E-01
(PID.TID 0000.0001) %MON ke_max                       =   8.9839058506003E-06
(PID.TID 0000.0001) %MON ke_mean                      =   3.5875944734268E-08
(PID.TID 0000.0001) %MON ke_vol                       =   4.2725176651930E+12
(PID.TID 0000.0001) // =======================================================
(PID.TID 0000.0001) // End MONITOR dynamic field statistics
(PID.TID 0000.0001) // =======================================================
(PID.TID 0000.0001) // =======================================================
(PID.TID 0000.0001) // Begin OBCS MONITOR field statistics
(PID.TID 0000.0001) // =======================================================
(PID.TID 0000.0001) %MON obc_N_vVel_max               =   1.4736313082421E-05
(PID.TID 0000.0001) %MON obc_N_vVel_min               =   1.4736313082421E-05
(PID.TID 0000.0001) %MON obc_N_vVel_mean              =   1.4736313082421E-05
(PID.TID 0000.0001) %MON obc_N_vVel_sd                =   3.7876660028264E-12
(PID.TID 0000.0001) %MON obc_N_vVel_Int               =   9.7259666343978E+02
(PID.TID 0000.0001) // =======================================================
(PID.TID 0000.0001) // End OBCS MONITOR field statistics
(PID.TID 0000.0001) // =======================================================
 cg2d: Sum(rhs),rhsMax =   4.51749212622082E+00  2.99894775946787E+02
(PID.TID 0000.0001)      cg2d_init_res =   6.09891280756074E-06
(PID.TID 0000.0001)      cg2d_iters(min,last) =      -1      77
(PID.TID 0000.0001)      cg2d_last_res =   9.86700424021222E-12
(PID.TID 0000.0001) // =======================================================
(PID.TID 0000.0001) // Begin MONITOR dynamic field statistics
(PID.TID 0000.0001) // =======================================================
(PID.TID 0000.0001) %MON time_tsnumber                =                   531
(PID.TID 0000.0001) %MON time_secondsf                =   5.3100000000000E+04
(PID.TID 0000.0001) %MON dynstat_eta_max              =   5.7987310398554E+00
(PID.TID 0000.0001) %MON dynstat_eta_min              =  -1.4199510027879E+01
(PID.TID 0000.0001) %MON dynstat_eta_mean             =  -2.5088375722859E+00
(PID.TID 0000.0001) %MON dynstat_eta_sd               =   4.9515985996670E+00
(PID.TID 0000.0001) %MON dynstat_eta_del2             =   2.0714174902133E-01
(PID.TID 0000.0001) %MON dynstat_uvel_max             =   1.4883855735075E-03
(PID.TID 0000.0001) %MON dynstat_uvel_min             =  -5.4069529068421E-03
(PID.TID 0000.0001) %MON dynstat_uvel_mean            =  -1.1939204223481E-07
(PID.TID 0000.0001) %MON dynstat_uvel_sd              =   2.1005537389511E-04
(PID.TID 0000.0001) %MON dynstat_uvel_del2            =   3.5270341474615E-07
(PID.TID 0000.0001) %MON dynstat_vvel_max             =   4.8406041992672E-03
(PID.TID 0000.0001) %MON dynstat_vvel_min             =  -2.3131012592454E-03
(PID.TID 0000.0001) %MON dynstat_vvel_mean            =   1.4967711592795E-05
(PID.TID 0000.0001) %MON dynstat_vvel_sd              =   1.6919972658426E-04
(PID.TID 0000.0001) %MON dynstat_vvel_del2            =   3.7637198888075E-07
(PID.TID 0000.0001) %MON dynstat_wvel_max             =   1.7525515717579E-04
(PID.TID 0000.0001) %MON dynstat_wvel_min             =  -1.9749534544339E-04
(PID.TID 0000.0001) %MON dynstat_wvel_mean            =   6.5975305261122E-09
(PID.TID 0000.0001) %MON dynstat_wvel_sd              =   2.4646804004421E-05
(PID.TID 0000.0001) %MON dynstat_wvel_del2            =   1.0355896692990E-07
(PID.TID 0000.0001) %MON dynstat_theta_max            =   1.2000000000000E+00
(PID.TID 0000.0001) %MON dynstat_theta_min            =  -1.0000000000000E+00
(PID.TID 0000.0001) %MON dynstat_theta_mean           =   5.6901235165538E-01
(PID.TID 0000.0001) %MON dynstat_theta_sd             =   8.6853598378772E-01
(PID.TID 0000.0001) %MON dynstat_theta_del2           =   1.1252699141731E-06
(PID.TID 0000.0001) %MON dynstat_salt_max             =   3.4700000000000E+01
(PID.TID 0000.0001) %MON dynstat_salt_min             =   3.4000000000000E+01
(PID.TID 0000.0001) %MON dynstat_salt_mean            =   3.4499219079022E+01
(PID.TID 0000.0001) %MON dynstat_salt_sd              =   2.7634888925189E-01
(PID.TID 0000.0001) %MON dynstat_salt_del2            =   4.1348263344491E-07
(PID.TID 0000.0001) %MON advcfl_uvel_max              =   5.4069529068421E-04
(PID.TID 0000.0001) %MON advcfl_vvel_max              =   4.8406041992672E-04
(PID.TID 0000.0001) %MON advcfl_wvel_max              =   9.8747672721693E-04
(PID.TID 0000.0001) %MON advcfl_W_hf_max              =   9.8747672721693E-04
(PID.TID 0000.0001) %MON pe_b_mean                    =  -8.3132887462153E-01
(PID.TID 0000.0001) %MON ke_max                       =   9.0363884250789E-06
(PID.TID 0000.0001) %MON ke_mean                      =   3.6048743479961E-08
(PID.TID 0000.0001) %MON ke_vol                       =   4.2725175849936E+12
(PID.TID 0000.0001) // =======================================================
(PID.TID 0000.0001) // End MONITOR dynamic field statistics
(PID.TID 0000.0001) // =======================================================
(PID.TID 0000.0001) // =======================================================
(PID.TID 0000.0001) // Begin OBCS MONITOR field statistics
(PID.TID 0000.0001) // =======================================================
(PID.TID 0000.0001) %MON obc_N_vVel_max               =   1.4735087530275E-05
(PID.TID 0000.0001) %MON obc_N_vVel_min               =   1.4735087530275E-05
(PID.TID 0000.0001) %MON obc_N_vVel_mean              =   1.4735087530275E-05
(PID.TID 0000.0001) %MON obc_N_vVel_sd                =   4.1021891212651E-12
(PID.TID 0000.0001) %MON obc_N_vVel_Int               =   9.7251577699815E+02
(PID.TID 0000.0001) // =======================================================
(PID.TID 0000.0001) // End OBCS MONITOR field statistics
(PID.TID 0000.0001) // =======================================================
 cg2d: Sum(rhs),rhsMax =   4.51751527602785E+00  2.99894851996607E+02
(PID.TID 0000.0001)      cg2d_init_res =   6.11087538898778E-06
(PID.TID 0000.0001)      cg2d_iters(min,last) =      -1      77
(PID.TID 0000.0001)      cg2d_last_res =   9.87263438135679E-12
(PID.TID 0000.0001) // =======================================================
(PID.TID 0000.0001) // Begin MONITOR dynamic field statistics
(PID.TID 0000.0001) // =======================================================
(PID.TID 0000.0001) %MON time_tsnumber                =                   532
(PID.TID 0000.0001) %MON time_secondsf                =   5.3200000000000E+04
(PID.TID 0000.0001) %MON dynstat_eta_max              =   5.7987074649032E+00
(PID.TID 0000.0001) %MON dynstat_eta_min              =  -1.4199524218996E+01
(PID.TID 0000.0001) %MON dynstat_eta_mean             =  -2.5088510649940E+00
(PID.TID 0000.0001) %MON dynstat_eta_sd               =   4.9516030851823E+00
(PID.TID 0000.0001) %MON dynstat_eta_del2             =   2.0714175866640E-01
(PID.TID 0000.0001) %MON dynstat_uvel_max             =   1.4912098351996E-03
(PID.TID 0000.0001) %MON dynstat_uvel_min             =  -5.4234805699469E-03
(PID.TID 0000.0001) %MON dynstat_uvel_mean            =  -1.1891741857880E-07
(PID.TID 0000.0001) %MON dynstat_uvel_sd              =   2.1041883978604E-04
(PID.TID 0000.0001) %MON dynstat_uvel_del2            =   3.5328375485887E-07
(PID.TID 0000.0001) %MON dynstat_vvel_max             =   4.8507321678034E-03
(PID.TID 0000.0001) %MON dynstat_vvel_min             =  -2.3112649531889E-03
(PID.TID 0000.0001) %MON dynstat_vvel_mean            =   1.4966281154363E-05
(PID.TID 0000.0001) %MON dynstat_vvel_sd              =   1.6967586950622E-04
(PID.TID 0000.0001) %MON dynstat_vvel_del2            =   3.7773816062234E-07
(PID.TID 0000.0001) %MON dynstat_wvel_max             =   1.7992184960041E-04
(PID.TID 0000.0001) %MON dynstat_wvel_min             =  -1.9815810939138E-04
(PID.TID 0000.0001) %MON dynstat_wvel_mean            =   6.5953480564311E-09
(PID.TID 0000.0001) %MON dynstat_wvel_sd              =   2.4934788010446E-05
(PID.TID 0000.0001) %MON dynstat_wvel_del2            =   1.0498148633867E-07
(PID.TID 0000.0001) %MON dynstat_theta_max            =   1.2000000000000E+00
(PID.TID 0000.0001) %MON dynstat_theta_min            =  -1.0000000000000E+00
(PID.TID 0000.0001) %MON dynstat_theta_mean           =   5.6901201126544E-01
(PID.TID 0000.0001) %MON dynstat_theta_sd             =   8.6853580135638E-01
(PID.TID 0000.0001) %MON dynstat_theta_del2           =   1.1228035819392E-06
(PID.TID 0000.0001) %MON dynstat_salt_max             =   3.4700000000000E+01
(PID.TID 0000.0001) %MON dynstat_salt_min             =   3.4000000000000E+01
(PID.TID 0000.0001) %MON dynstat_salt_mean            =   3.4499218942891E+01
(PID.TID 0000.0001) %MON dynstat_salt_sd              =   2.7634882135138E-01
(PID.TID 0000.0001) %MON dynstat_salt_del2            =   4.1304334280504E-07
(PID.TID 0000.0001) %MON advcfl_uvel_max              =   5.4234805699469E-04
(PID.TID 0000.0001) %MON advcfl_vvel_max              =   4.8507321678034E-04
(PID.TID 0000.0001) %MON advcfl_wvel_max              =   9.9079054695690E-04
(PID.TID 0000.0001) %MON advcfl_W_hf_max              =   9.9079054695690E-04
(PID.TID 0000.0001) %MON pe_b_mean                    =  -8.3133272510130E-01
(PID.TID 0000.0001) %MON ke_max                       =   9.0891557036526E-06
(PID.TID 0000.0001) %MON ke_mean                      =   3.6204291801757E-08
(PID.TID 0000.0001) %MON ke_vol                       =   4.2725175048206E+12
(PID.TID 0000.0001) // =======================================================
(PID.TID 0000.0001) // End MONITOR dynamic field statistics
(PID.TID 0000.0001) // =======================================================
(PID.TID 0000.0001) // =======================================================
(PID.TID 0000.0001) // Begin OBCS MONITOR field statistics
(PID.TID 0000.0001) // =======================================================
(PID.TID 0000.0001) %MON obc_N_vVel_max               =   1.4733899484957E-05
(PID.TID 0000.0001) %MON obc_N_vVel_min               =   1.4733899484957E-05
(PID.TID 0000.0001) %MON obc_N_vVel_mean              =   1.4733899484957E-05
(PID.TID 0000.0001) %MON obc_N_vVel_sd                =  -1.3958672836832E-24
(PID.TID 0000.0001) %MON obc_N_vVel_Int               =   9.7243736600717E+02
(PID.TID 0000.0001) // =======================================================
(PID.TID 0000.0001) // End OBCS MONITOR field statistics
(PID.TID 0000.0001) // =======================================================
 cg2d: Sum(rhs),rhsMax =   4.51753841739669E+00  2.99894928083710E+02
(PID.TID 0000.0001)      cg2d_init_res =   6.12089880198668E-06
(PID.TID 0000.0001)      cg2d_iters(min,last) =      -1      77
(PID.TID 0000.0001)      cg2d_last_res =   9.86772947730780E-12
(PID.TID 0000.0001) // =======================================================
(PID.TID 0000.0001) // Begin MONITOR dynamic field statistics
(PID.TID 0000.0001) // =======================================================
(PID.TID 0000.0001) %MON time_tsnumber                =                   533
(PID.TID 0000.0001) %MON time_secondsf                =   5.3300000000000E+04
(PID.TID 0000.0001) %MON dynstat_eta_max              =   5.7986838920478E+00
(PID.TID 0000.0001) %MON dynstat_eta_min              =  -1.4199538388755E+01
(PID.TID 0000.0001) %MON dynstat_eta_mean             =  -2.5088645533344E+00
(PID.TID 0000.0001) %MON dynstat_eta_sd               =   4.9516075696631E+00
(PID.TID 0000.0001) %MON dynstat_eta_del2             =   2.0714176833172E-01
(PID.TID 0000.0001) %MON dynstat_uvel_max             =   1.4940270769070E-03
(PID.TID 0000.0001) %MON dynstat_uvel_min             =  -5.4400454978305E-03
(PID.TID 0000.0001) %MON dynstat_uvel_mean            =  -1.1842377133352E-07
(PID.TID 0000.0001) %MON dynstat_uvel_sd              =   2.1078315424051E-04
(PID.TID 0000.0001) %MON dynstat_uvel_del2            =   3.5386995673202E-07
(PID.TID 0000.0001) %MON dynstat_vvel_max             =   4.8608680761928E-03
(PID.TID 0000.0001) %MON dynstat_vvel_min             =  -2.3117499243828E-03
(PID.TID 0000.0001) %MON dynstat_vvel_mean            =   1.4964884852257E-05
(PID.TID 0000.0001) %MON dynstat_vvel_sd              =   1.7003466030137E-04
(PID.TID 0000.0001) %MON dynstat_vvel_del2            =   3.7873636265335E-07
(PID.TID 0000.0001) %MON dynstat_wvel_max             =   1.8336107879255E-04
(PID.TID 0000.0001) %MON dynstat_wvel_min             =  -1.9882195861427E-04
(PID.TID 0000.0001) %MON dynstat_wvel_mean            =   6.5931179080501E-09
(PID.TID 0000.0001) %MON dynstat_wvel_sd              =   2.5106052291084E-05
(PID.TID 0000.0001) %MON dynstat_wvel_del2            =   1.0613898344645E-07
(PID.TID 0000.0001) %MON dynstat_theta_max            =   1.2000000000000E+00
(PID.TID 0000.0001) %MON dynstat_theta_min            =  -1.0000000000000E+00
(PID.TID 0000.0001) %MON dynstat_theta_mean           =   5.6901167054291E-01
(PID.TID 0000.0001) %MON dynstat_theta_sd             =   8.6853561869730E-01
(PID.TID 0000.0001) %MON dynstat_theta_del2           =   1.1208710694353E-06
(PID.TID 0000.0001) %MON dynstat_salt_max             =   3.4700000000000E+01
(PID.TID 0000.0001) %MON dynstat_salt_min             =   3.4000000000000E+01
(PID.TID 0000.0001) %MON dynstat_salt_mean            =   3.4499218806624E+01
(PID.TID 0000.0001) %MON dynstat_salt_sd              =   2.7634875335899E-01
(PID.TID 0000.0001) %MON dynstat_salt_del2            =   4.1275266125611E-07
(PID.TID 0000.0001) %MON advcfl_uvel_max              =   5.4400454978305E-04
(PID.TID 0000.0001) %MON advcfl_vvel_max              =   4.8608680761928E-04
(PID.TID 0000.0001) %MON advcfl_wvel_max              =   9.9410979307133E-04
(PID.TID 0000.0001) %MON advcfl_W_hf_max              =   9.9410979307133E-04
(PID.TID 0000.0001) %MON pe_b_mean                    =  -8.3133657409436E-01
(PID.TID 0000.0001) %MON ke_max                       =   9.1422093282263E-06
(PID.TID 0000.0001) %MON ke_mean                      =   3.6340413071421E-08
(PID.TID 0000.0001) %MON ke_vol                       =   4.2725174246739E+12
(PID.TID 0000.0001) // =======================================================
(PID.TID 0000.0001) // End MONITOR dynamic field statistics
(PID.TID 0000.0001) // =======================================================
(PID.TID 0000.0001) // =======================================================
(PID.TID 0000.0001) // Begin OBCS MONITOR field statistics
(PID.TID 0000.0001) // =======================================================
(PID.TID 0000.0001) %MON obc_N_vVel_max               =   1.4732758894320E-05
(PID.TID 0000.0001) %MON obc_N_vVel_min               =   1.4732758894320E-05
(PID.TID 0000.0001) %MON obc_N_vVel_mean              =   1.4732758894320E-05
(PID.TID 0000.0001) %MON obc_N_vVel_sd                =   1.8887075982361E-12
(PID.TID 0000.0001) %MON obc_N_vVel_Int               =   9.7236208702512E+02
(PID.TID 0000.0001) // =======================================================
(PID.TID 0000.0001) // End OBCS MONITOR field statistics
(PID.TID 0000.0001) // =======================================================
 cg2d: Sum(rhs),rhsMax =   4.51756155038321E+00  2.99895004211674E+02
(PID.TID 0000.0001)      cg2d_init_res =   6.12836228767551E-06
(PID.TID 0000.0001)      cg2d_iters(min,last) =      -1      77
(PID.TID 0000.0001)      cg2d_last_res =   9.85613181453778E-12
(PID.TID 0000.0001) // =======================================================
(PID.TID 0000.0001) // Begin MONITOR dynamic field statistics
(PID.TID 0000.0001) // =======================================================
(PID.TID 0000.0001) %MON time_tsnumber                =                   534
(PID.TID 0000.0001) %MON time_secondsf                =   5.3400000000000E+04
(PID.TID 0000.0001) %MON dynstat_eta_max              =   5.7986603212345E+00
(PID.TID 0000.0001) %MON dynstat_eta_min              =  -1.4199552538376E+01
(PID.TID 0000.0001) %MON dynstat_eta_mean             =  -2.5088780373679E+00
(PID.TID 0000.0001) %MON dynstat_eta_sd               =   4.9516120531301E+00
(PID.TID 0000.0001) %MON dynstat_eta_del2             =   2.0714177801733E-01
(PID.TID 0000.0001) %MON dynstat_uvel_max             =   1.4968370991237E-03
(PID.TID 0000.0001) %MON dynstat_uvel_min             =  -5.4566478412630E-03
(PID.TID 0000.0001) %MON dynstat_uvel_mean            =  -1.1797234239989E-07
(PID.TID 0000.0001) %MON dynstat_uvel_sd              =   2.1114827949183E-04
(PID.TID 0000.0001) %MON dynstat_uvel_del2            =   3.5446180836627E-07
(PID.TID 0000.0001) %MON dynstat_vvel_max             =   4.8710122403448E-03
(PID.TID 0000.0001) %MON dynstat_vvel_min             =  -2.3196893967103E-03
(PID.TID 0000.0001) %MON dynstat_vvel_mean            =   1.4963554749808E-05
(PID.TID 0000.0001) %MON dynstat_vvel_sd              =   1.7026897473653E-04
(PID.TID 0000.0001) %MON dynstat_vvel_del2            =   3.7932364750920E-07
(PID.TID 0000.0001) %MON dynstat_wvel_max             =   1.8519084020125E-04
(PID.TID 0000.0001) %MON dynstat_wvel_min             =  -1.9948689726816E-04
(PID.TID 0000.0001) %MON dynstat_wvel_mean            =   6.5910460479652E-09
(PID.TID 0000.0001) %MON dynstat_wvel_sd              =   2.5153097304748E-05
(PID.TID 0000.0001) %MON dynstat_wvel_del2            =   1.0697082532686E-07
(PID.TID 0000.0001) %MON dynstat_theta_max            =   1.2000000000000E+00
(PID.TID 0000.0001) %MON dynstat_theta_min            =  -1.0000000000000E+00
(PID.TID 0000.0001) %MON dynstat_theta_mean           =   5.6901132950582E-01
(PID.TID 0000.0001) %MON dynstat_theta_sd             =   8.6853543577529E-01
(PID.TID 0000.0001) %MON dynstat_theta_del2           =   1.1195722613952E-06
(PID.TID 0000.0001) %MON dynstat_salt_max             =   3.4700000000000E+01
(PID.TID 0000.0001) %MON dynstat_salt_min             =   3.4000000000000E+01
(PID.TID 0000.0001) %MON dynstat_salt_mean            =   3.4499218670225E+01
(PID.TID 0000.0001) %MON dynstat_salt_sd              =   2.7634868526340E-01
(PID.TID 0000.0001) %MON dynstat_salt_del2            =   4.1263757677152E-07
(PID.TID 0000.0001) %MON advcfl_uvel_max              =   5.4566478412630E-04
(PID.TID 0000.0001) %MON advcfl_vvel_max              =   4.8710122403448E-04
(PID.TID 0000.0001) %MON advcfl_wvel_max              =   9.9743448634080E-04
(PID.TID 0000.0001) %MON advcfl_W_hf_max              =   9.9743448634080E-04
(PID.TID 0000.0001) %MON pe_b_mean                    =  -8.3134042161823E-01
(PID.TID 0000.0001) %MON ke_max                       =   9.1955509415276E-06
(PID.TID 0000.0001) %MON ke_mean                      =   3.6455761609417E-08
(PID.TID 0000.0001) %MON ke_vol                       =   4.2725173445532E+12
(PID.TID 0000.0001) // =======================================================
(PID.TID 0000.0001) // End MONITOR dynamic field statistics
(PID.TID 0000.0001) // =======================================================
(PID.TID 0000.0001) // =======================================================
(PID.TID 0000.0001) // Begin OBCS MONITOR field statistics
(PID.TID 0000.0001) // =======================================================
(PID.TID 0000.0001) %MON obc_N_vVel_max               =   1.4731674142954E-05
(PID.TID 0000.0001) %MON obc_N_vVel_min               =   1.4731674142954E-05
(PID.TID 0000.0001) %MON obc_N_vVel_mean              =   1.4731674142954E-05
(PID.TID 0000.0001) %MON obc_N_vVel_sd                =   3.5662167514052E-12
(PID.TID 0000.0001) %MON obc_N_vVel_Int               =   9.7229049343494E+02
(PID.TID 0000.0001) // =======================================================
(PID.TID 0000.0001) // End OBCS MONITOR field statistics
(PID.TID 0000.0001) // =======================================================
 cg2d: Sum(rhs),rhsMax =   4.51758467507358E+00  2.99895080383727E+02
(PID.TID 0000.0001)      cg2d_init_res =   6.13275095227078E-06
(PID.TID 0000.0001)      cg2d_iters(min,last) =      -1      77
(PID.TID 0000.0001)      cg2d_last_res =   9.84297915485256E-12
(PID.TID 0000.0001) // =======================================================
(PID.TID 0000.0001) // Begin MONITOR dynamic field statistics
(PID.TID 0000.0001) // =======================================================
(PID.TID 0000.0001) %MON time_tsnumber                =                   535
(PID.TID 0000.0001) %MON time_secondsf                =   5.3500000000000E+04
(PID.TID 0000.0001) %MON dynstat_eta_max              =   5.7986367522407E+00
(PID.TID 0000.0001) %MON dynstat_eta_min              =  -1.4199566669552E+01
(PID.TID 0000.0001) %MON dynstat_eta_mean             =  -2.5088915171694E+00
(PID.TID 0000.0001) %MON dynstat_eta_sd               =   4.9516165356053E+00
(PID.TID 0000.0001) %MON dynstat_eta_del2             =   2.0714178772312E-01
(PID.TID 0000.0001) %MON dynstat_uvel_max             =   1.4996397513585E-03
(PID.TID 0000.0001) %MON dynstat_uvel_min             =  -5.4732877460344E-03
(PID.TID 0000.0001) %MON dynstat_uvel_mean            =  -1.1761796667311E-07
(PID.TID 0000.0001) %MON dynstat_uvel_sd              =   2.1151414492307E-04
(PID.TID 0000.0001) %MON dynstat_uvel_del2            =   3.5505897349549E-07
(PID.TID 0000.0001) %MON dynstat_vvel_max             =   4.8835574914525E-03
(PID.TID 0000.0001) %MON dynstat_vvel_min             =  -2.3276349035477E-03
(PID.TID 0000.0001) %MON dynstat_vvel_mean            =   1.4962322592350E-05
(PID.TID 0000.0001) %MON dynstat_vvel_sd              =   1.7037676640466E-04
(PID.TID 0000.0001) %MON dynstat_vvel_del2            =   3.7947355307332E-07
(PID.TID 0000.0001) %MON dynstat_wvel_max             =   1.8956608441098E-04
(PID.TID 0000.0001) %MON dynstat_wvel_min             =  -2.0015712768135E-04
(PID.TID 0000.0001) %MON dynstat_wvel_mean            =   6.5893319873988E-09
(PID.TID 0000.0001) %MON dynstat_wvel_sd              =   2.5072045944210E-05
(PID.TID 0000.0001) %MON dynstat_wvel_del2            =   1.0742833032176E-07
(PID.TID 0000.0001) %MON dynstat_theta_max            =   1.2000000000000E+00
(PID.TID 0000.0001) %MON dynstat_theta_min            =  -1.0000000000000E+00
(PID.TID 0000.0001) %MON dynstat_theta_mean           =   5.6901098817108E-01
(PID.TID 0000.0001) %MON dynstat_theta_sd             =   8.6853525256262E-01
(PID.TID 0000.0001) %MON dynstat_theta_del2           =   1.1189781861872E-06
(PID.TID 0000.0001) %MON dynstat_salt_max             =   3.4700000000000E+01
(PID.TID 0000.0001) %MON dynstat_salt_min             =   3.4000000000000E+01
(PID.TID 0000.0001) %MON dynstat_salt_mean            =   3.4499218533702E+01
(PID.TID 0000.0001) %MON dynstat_salt_sd              =   2.7634861705597E-01
(PID.TID 0000.0001) %MON dynstat_salt_del2            =   4.1271708989524E-07
(PID.TID 0000.0001) %MON advcfl_uvel_max              =   5.4732877460344E-04
(PID.TID 0000.0001) %MON advcfl_vvel_max              =   4.8835574914525E-04
(PID.TID 0000.0001) %MON advcfl_wvel_max              =   1.0007856384068E-03
(PID.TID 0000.0001) %MON advcfl_W_hf_max              =   1.0007856384068E-03
(PID.TID 0000.0001) %MON pe_b_mean                    =  -8.3134426770006E-01
(PID.TID 0000.0001) %MON ke_max                       =   9.2491821832531E-06
(PID.TID 0000.0001) %MON ke_mean                      =   3.6549888001777E-08
(PID.TID 0000.0001) %MON ke_vol                       =   4.2725172644580E+12
(PID.TID 0000.0001) // =======================================================
(PID.TID 0000.0001) // End MONITOR dynamic field statistics
(PID.TID 0000.0001) // =======================================================
(PID.TID 0000.0001) // =======================================================
(PID.TID 0000.0001) // Begin OBCS MONITOR field statistics
(PID.TID 0000.0001) // =======================================================
(PID.TID 0000.0001) %MON obc_N_vVel_max               =   1.4730655147473E-05
(PID.TID 0000.0001) %MON obc_N_vVel_min               =   1.4730655147473E-05
(PID.TID 0000.0001) %MON obc_N_vVel_mean              =   1.4730655147473E-05
(PID.TID 0000.0001) %MON obc_N_vVel_sd                =  -2.3652195640188E-23
(PID.TID 0000.0001) %MON obc_N_vVel_Int               =   9.7222323973325E+02
(PID.TID 0000.0001) // =======================================================
(PID.TID 0000.0001) // End OBCS MONITOR field statistics
(PID.TID 0000.0001) // =======================================================
 cg2d: Sum(rhs),rhsMax =   4.51760779158555E+00  2.99895156602672E+02
(PID.TID 0000.0001)      cg2d_init_res =   6.13366358515207E-06
(PID.TID 0000.0001)      cg2d_iters(min,last) =      -1      77
(PID.TID 0000.0001)      cg2d_last_res =   9.83302925911897E-12
(PID.TID 0000.0001) // =======================================================
(PID.TID 0000.0001) // Begin MONITOR dynamic field statistics
(PID.TID 0000.0001) // =======================================================
(PID.TID 0000.0001) %MON time_tsnumber                =                   536
(PID.TID 0000.0001) %MON time_secondsf                =   5.3600000000000E+04
(PID.TID 0000.0001) %MON dynstat_eta_max              =   5.7986131847547E+00
(PID.TID 0000.0001) %MON dynstat_eta_min              =  -1.4199580784216E+01
(PID.TID 0000.0001) %MON dynstat_eta_mean             =  -2.5089049928278E+00
(PID.TID 0000.0001) %MON dynstat_eta_sd               =   4.9516210171209E+00
(PID.TID 0000.0001) %MON dynstat_eta_del2             =   2.0714179744919E-01
(PID.TID 0000.0001) %MON dynstat_uvel_max             =   1.5024349474597E-03
(PID.TID 0000.0001) %MON dynstat_uvel_min             =  -5.4899653521794E-03
(PID.TID 0000.0001) %MON dynstat_uvel_mean            =  -1.1740024472314E-07
(PID.TID 0000.0001) %MON dynstat_uvel_sd              =   2.1188064888320E-04
(PID.TID 0000.0001) %MON dynstat_uvel_del2            =   3.5566099745537E-07
(PID.TID 0000.0001) %MON dynstat_vvel_max             =   4.8963317342441E-03
(PID.TID 0000.0001) %MON dynstat_vvel_min             =  -2.3355864267707E-03
(PID.TID 0000.0001) %MON dynstat_vvel_mean            =   1.4961219287877E-05
(PID.TID 0000.0001) %MON dynstat_vvel_sd              =   1.7036117097103E-04
(PID.TID 0000.0001) %MON dynstat_vvel_del2            =   3.7917766518068E-07
(PID.TID 0000.0001) %MON dynstat_wvel_max             =   1.9638306722832E-04
(PID.TID 0000.0001) %MON dynstat_wvel_min             =  -2.0083042909011E-04
(PID.TID 0000.0001) %MON dynstat_wvel_mean            =   6.5881440415207E-09
(PID.TID 0000.0001) %MON dynstat_wvel_sd              =   2.4862740565059E-05
(PID.TID 0000.0001) %MON dynstat_wvel_del2            =   1.0747599533181E-07
(PID.TID 0000.0001) %MON dynstat_theta_max            =   1.2000000000000E+00
(PID.TID 0000.0001) %MON dynstat_theta_min            =  -1.0000000000000E+00
(PID.TID 0000.0001) %MON dynstat_theta_mean           =   5.6901064655372E-01
(PID.TID 0000.0001) %MON dynstat_theta_sd             =   8.6853506903635E-01
(PID.TID 0000.0001) %MON dynstat_theta_del2           =   1.1191266454969E-06
(PID.TID 0000.0001) %MON dynstat_salt_max             =   3.4700000000000E+01
(PID.TID 0000.0001) %MON dynstat_salt_min             =   3.4000000000000E+01
(PID.TID 0000.0001) %MON dynstat_salt_mean            =   3.4499218397058E+01
(PID.TID 0000.0001) %MON dynstat_salt_sd              =   2.7634854872910E-01
(PID.TID 0000.0001) %MON dynstat_salt_del2            =   4.1300109385383E-07
(PID.TID 0000.0001) %MON advcfl_uvel_max              =   5.4899653521794E-04
(PID.TID 0000.0001) %MON advcfl_vvel_max              =   4.8963317342441E-04
(PID.TID 0000.0001) %MON advcfl_wvel_max              =   1.0041521454505E-03
(PID.TID 0000.0001) %MON advcfl_W_hf_max              =   1.0041521454505E-03
(PID.TID 0000.0001) %MON pe_b_mean                    =  -8.3134811237527E-01
(PID.TID 0000.0001) %MON ke_max                       =   9.3031046905328E-06
(PID.TID 0000.0001) %MON ke_mean                      =   3.6623265631324E-08
(PID.TID 0000.0001) %MON ke_vol                       =   4.2725171843880E+12
(PID.TID 0000.0001) // =======================================================
(PID.TID 0000.0001) // End MONITOR dynamic field statistics
(PID.TID 0000.0001) // =======================================================
(PID.TID 0000.0001) // =======================================================
(PID.TID 0000.0001) // Begin OBCS MONITOR field statistics
(PID.TID 0000.0001) // =======================================================
(PID.TID 0000.0001) %MON obc_N_vVel_max               =   1.4729715461025E-05
(PID.TID 0000.0001) %MON obc_N_vVel_min               =   1.4729715461024E-05
(PID.TID 0000.0001) %MON obc_N_vVel_mean              =   1.4729715461024E-05
(PID.TID 0000.0001) %MON obc_N_vVel_sd                =   3.6556992178734E-12
(PID.TID 0000.0001) %MON obc_N_vVel_Int               =   9.7216122042761E+02
(PID.TID 0000.0001) // =======================================================
(PID.TID 0000.0001) // End OBCS MONITOR field statistics
(PID.TID 0000.0001) // =======================================================
 cg2d: Sum(rhs),rhsMax =   4.51763090008107E+00  2.99895232870612E+02
(PID.TID 0000.0001)      cg2d_init_res =   6.13083533815483E-06
(PID.TID 0000.0001)      cg2d_iters(min,last) =      -1      77
(PID.TID 0000.0001)      cg2d_last_res =   9.83016006512262E-12
(PID.TID 0000.0001) // =======================================================
(PID.TID 0000.0001) // Begin MONITOR dynamic field statistics
(PID.TID 0000.0001) // =======================================================
(PID.TID 0000.0001) %MON time_tsnumber                =                   537
(PID.TID 0000.0001) %MON time_secondsf                =   5.3700000000000E+04
(PID.TID 0000.0001) %MON dynstat_eta_max              =   5.7985896184476E+00
(PID.TID 0000.0001) %MON dynstat_eta_min              =  -1.4199594884330E+01
(PID.TID 0000.0001) %MON dynstat_eta_mean             =  -2.5089184644505E+00
(PID.TID 0000.0001) %MON dynstat_eta_sd               =   4.9516254977149E+00
(PID.TID 0000.0001) %MON dynstat_eta_del2             =   2.0714180719556E-01
(PID.TID 0000.0001) %MON dynstat_uvel_max             =   1.5052226741883E-03
(PID.TID 0000.0001) %MON dynstat_uvel_min             =  -5.5066807929460E-03
(PID.TID 0000.0001) %MON dynstat_uvel_mean            =  -1.1733792972333E-07
(PID.TID 0000.0001) %MON dynstat_uvel_sd              =   2.1224766162569E-04
(PID.TID 0000.0001) %MON dynstat_uvel_del2            =   3.5626731892368E-07
(PID.TID 0000.0001) %MON dynstat_vvel_max             =   4.9091185639236E-03
(PID.TID 0000.0001) %MON dynstat_vvel_min             =  -2.3435439436943E-03
(PID.TID 0000.0001) %MON dynstat_vvel_mean            =   1.4960274331391E-05
(PID.TID 0000.0001) %MON dynstat_vvel_sd              =   1.7023042582368E-04
(PID.TID 0000.0001) %MON dynstat_vvel_del2            =   3.7844664278722E-07
(PID.TID 0000.0001) %MON dynstat_wvel_max             =   2.0096925205965E-04
(PID.TID 0000.0001) %MON dynstat_wvel_min             =  -2.0150487570354E-04
(PID.TID 0000.0001) %MON dynstat_wvel_mean            =   6.5876002023362E-09
(PID.TID 0000.0001) %MON dynstat_wvel_sd              =   2.4528869902629E-05
(PID.TID 0000.0001) %MON dynstat_wvel_del2            =   1.0709259353571E-07
(PID.TID 0000.0001) %MON dynstat_theta_max            =   1.2000000000000E+00
(PID.TID 0000.0001) %MON dynstat_theta_min            =  -1.0000000000000E+00
(PID.TID 0000.0001) %MON dynstat_theta_mean           =   5.6901030466651E-01
(PID.TID 0000.0001) %MON dynstat_theta_sd             =   8.6853488521194E-01
(PID.TID 0000.0001) %MON dynstat_theta_del2           =   1.1200188694469E-06
(PID.TID 0000.0001) %MON dynstat_salt_max             =   3.4700000000000E+01
(PID.TID 0000.0001) %MON dynstat_salt_min             =   3.4000000000000E+01
(PID.TID 0000.0001) %MON dynstat_salt_mean            =   3.4499218260298E+01
(PID.TID 0000.0001) %MON dynstat_salt_sd              =   2.7634848028797E-01
(PID.TID 0000.0001) %MON dynstat_salt_del2            =   4.1348972066149E-07
(PID.TID 0000.0001) %MON advcfl_uvel_max              =   5.5066807929460E-04
(PID.TID 0000.0001) %MON advcfl_vvel_max              =   4.9091185639236E-04
(PID.TID 0000.0001) %MON advcfl_wvel_max              =   1.0075243785177E-03
(PID.TID 0000.0001) %MON advcfl_W_hf_max              =   1.0075243785177E-03
(PID.TID 0000.0001) %MON pe_b_mean                    =  -8.3135195568677E-01
(PID.TID 0000.0001) %MON ke_max                       =   9.3573200982472E-06
(PID.TID 0000.0001) %MON ke_mean                      =   3.6677276503234E-08
(PID.TID 0000.0001) %MON ke_vol                       =   4.2725171043426E+12
(PID.TID 0000.0001) // =======================================================
(PID.TID 0000.0001) // End MONITOR dynamic field statistics
(PID.TID 0000.0001) // =======================================================
(PID.TID 0000.0001) // =======================================================
(PID.TID 0000.0001) // Begin OBCS MONITOR field statistics
(PID.TID 0000.0001) // =======================================================
(PID.TID 0000.0001) %MON obc_N_vVel_max               =   1.4728873123833E-05
(PID.TID 0000.0001) %MON obc_N_vVel_min               =   1.4728873123833E-05
(PID.TID 0000.0001) %MON obc_N_vVel_mean              =   1.4728873123833E-05
(PID.TID 0000.0001) %MON obc_N_vVel_sd                =   3.4181758515781E-12
(PID.TID 0000.0001) %MON obc_N_vVel_Int               =   9.7210562617295E+02
(PID.TID 0000.0001) // =======================================================
(PID.TID 0000.0001) // End OBCS MONITOR field statistics
(PID.TID 0000.0001) // =======================================================
 cg2d: Sum(rhs),rhsMax =   4.51765400077720E+00  2.99895309189052E+02
(PID.TID 0000.0001)      cg2d_init_res =   6.12417485163393E-06
(PID.TID 0000.0001)      cg2d_iters(min,last) =      -1      77
(PID.TID 0000.0001)      cg2d_last_res =   9.83662234117009E-12
(PID.TID 0000.0001) // =======================================================
(PID.TID 0000.0001) // Begin MONITOR dynamic field statistics
(PID.TID 0000.0001) // =======================================================
(PID.TID 0000.0001) %MON time_tsnumber                =                   538
(PID.TID 0000.0001) %MON time_secondsf                =   5.3800000000000E+04
(PID.TID 0000.0001) %MON dynstat_eta_max              =   5.7985660530040E+00
(PID.TID 0000.0001) %MON dynstat_eta_min              =  -1.4199608971704E+01
(PID.TID 0000.0001) %MON dynstat_eta_mean             =  -2.5089319321708E+00
(PID.TID 0000.0001) %MON dynstat_eta_sd               =   4.9516299774393E+00
(PID.TID 0000.0001) %MON dynstat_eta_del2             =   2.0714181696241E-01
(PID.TID 0000.0001) %MON dynstat_uvel_max             =   1.5080029908834E-03
(PID.TID 0000.0001) %MON dynstat_uvel_min             =  -5.5234341947763E-03
(PID.TID 0000.0001) %MON dynstat_uvel_mean            =  -1.1742741661736E-07
(PID.TID 0000.0001) %MON dynstat_uvel_sd              =   2.1261502933425E-04
(PID.TID 0000.0001) %MON dynstat_uvel_del2            =   3.5687728769474E-07
(PID.TID 0000.0001) %MON dynstat_vvel_max             =   4.9219180329700E-03
(PID.TID 0000.0001) %MON dynstat_vvel_min             =  -2.3515074262708E-03
(PID.TID 0000.0001) %MON dynstat_vvel_mean            =   1.4959514947936E-05
(PID.TID 0000.0001) %MON dynstat_vvel_sd              =   1.6999759959677E-04
(PID.TID 0000.0001) %MON dynstat_vvel_del2            =   3.7731063632121E-07
(PID.TID 0000.0001) %MON dynstat_wvel_max             =   2.0325967256008E-04
(PID.TID 0000.0001) %MON dynstat_wvel_min             =  -2.0218047502643E-04
(PID.TID 0000.0001) %MON dynstat_wvel_mean            =   6.5877582933027E-09
(PID.TID 0000.0001) %MON dynstat_wvel_sd              =   2.4078127177775E-05
(PID.TID 0000.0001) %MON dynstat_wvel_del2            =   1.0627219938392E-07
(PID.TID 0000.0001) %MON dynstat_theta_max            =   1.2000000000000E+00
(PID.TID 0000.0001) %MON dynstat_theta_min            =  -1.0000000000000E+00
(PID.TID 0000.0001) %MON dynstat_theta_mean           =   5.6900996252036E-01
(PID.TID 0000.0001) %MON dynstat_theta_sd             =   8.6853470111384E-01
(PID.TID 0000.0001) %MON dynstat_theta_del2           =   1.1216194114347E-06
(PID.TID 0000.0001) %MON dynstat_salt_max             =   3.4700000000000E+01
(PID.TID 0000.0001) %MON dynstat_salt_min             =   3.4000000000000E+01
(PID.TID 0000.0001) %MON dynstat_salt_mean            =   3.4499218123425E+01
(PID.TID 0000.0001) %MON dynstat_salt_sd              =   2.7634841174033E-01
(PID.TID 0000.0001) %MON dynstat_salt_del2            =   4.1417295522760E-07
(PID.TID 0000.0001) %MON advcfl_uvel_max              =   5.5234341947763E-04
(PID.TID 0000.0001) %MON advcfl_vvel_max              =   4.9219180329700E-04
(PID.TID 0000.0001) %MON advcfl_wvel_max              =   1.0162983628004E-03
(PID.TID 0000.0001) %MON advcfl_W_hf_max              =   1.0162983628004E-03
(PID.TID 0000.0001) %MON pe_b_mean                    =  -8.3135579768500E-01
(PID.TID 0000.0001) %MON ke_max                       =   9.4118300402508E-06
(PID.TID 0000.0001) %MON ke_mean                      =   3.6714156032266E-08
(PID.TID 0000.0001) %MON ke_vol                       =   4.2725170243212E+12
(PID.TID 0000.0001) // =======================================================
(PID.TID 0000.0001) // End MONITOR dynamic field statistics
(PID.TID 0000.0001) // =======================================================
(PID.TID 0000.0001) // =======================================================
(PID.TID 0000.0001) // Begin OBCS MONITOR field statistics
(PID.TID 0000.0001) // =======================================================
(PID.TID 0000.0001) %MON obc_N_vVel_max               =   1.4728150115627E-05
(PID.TID 0000.0001) %MON obc_N_vVel_min               =   1.4728150115627E-05
(PID.TID 0000.0001) %MON obc_N_vVel_mean              =   1.4728150115627E-05
(PID.TID 0000.0001) %MON obc_N_vVel_sd                =  -2.4298430493745E-24
(PID.TID 0000.0001) %MON obc_N_vVel_Int               =   9.7205790763139E+02
(PID.TID 0000.0001) // =======================================================
(PID.TID 0000.0001) // End OBCS MONITOR field statistics
(PID.TID 0000.0001) // =======================================================
 cg2d: Sum(rhs),rhsMax =   4.51767709395524E+00  2.99895385558733E+02
(PID.TID 0000.0001)      cg2d_init_res =   6.11376302600749E-06
(PID.TID 0000.0001)      cg2d_iters(min,last) =      -1      77
(PID.TID 0000.0001)      cg2d_last_res =   9.85334757550055E-12
(PID.TID 0000.0001) // =======================================================
(PID.TID 0000.0001) // Begin MONITOR dynamic field statistics
(PID.TID 0000.0001) // =======================================================
(PID.TID 0000.0001) %MON time_tsnumber                =                   539
(PID.TID 0000.0001) %MON time_secondsf                =   5.3900000000000E+04
(PID.TID 0000.0001) %MON dynstat_eta_max              =   5.7985424881855E+00
(PID.TID 0000.0001) %MON dynstat_eta_min              =  -1.4199623047863E+01
(PID.TID 0000.0001) %MON dynstat_eta_mean             =  -2.5089453961511E+00
(PID.TID 0000.0001) %MON dynstat_eta_sd               =   4.9516344563548E+00
(PID.TID 0000.0001) %MON dynstat_eta_del2             =   2.0714182674959E-01
(PID.TID 0000.0001) %MON dynstat_uvel_max             =   1.5107760197868E-03
(PID.TID 0000.0001) %MON dynstat_uvel_min             =  -5.5402256774544E-03
(PID.TID 0000.0001) %MON dynstat_uvel_mean            =  -1.1764516053363E-07
(PID.TID 0000.0001) %MON dynstat_uvel_sd              =   2.1298257913478E-04
(PID.TID 0000.0001) %MON dynstat_uvel_del2            =   3.5749018417637E-07
(PID.TID 0000.0001) %MON dynstat_vvel_max             =   4.9347301755240E-03
(PID.TID 0000.0001) %MON dynstat_vvel_min             =  -2.3594768416775E-03
(PID.TID 0000.0001) %MON dynstat_vvel_mean            =   1.4958964993797E-05
(PID.TID 0000.0001) %MON dynstat_vvel_sd              =   1.6968012989831E-04
(PID.TID 0000.0001) %MON dynstat_vvel_del2            =   3.7581901243985E-07
(PID.TID 0000.0001) %MON dynstat_wvel_max             =   2.0321720904961E-04
(PID.TID 0000.0001) %MON dynstat_wvel_min             =  -2.0285723552317E-04
(PID.TID 0000.0001) %MON dynstat_wvel_mean            =   6.5886147810383E-09
(PID.TID 0000.0001) %MON dynstat_wvel_sd              =   2.3522396322439E-05
(PID.TID 0000.0001) %MON dynstat_wvel_del2            =   1.0502516603441E-07
(PID.TID 0000.0001) %MON dynstat_theta_max            =   1.2000000000000E+00
(PID.TID 0000.0001) %MON dynstat_theta_min            =  -1.0000000000000E+00
(PID.TID 0000.0001) %MON dynstat_theta_mean           =   5.6900962012383E-01
(PID.TID 0000.0001) %MON dynstat_theta_sd             =   8.6853451675962E-01
(PID.TID 0000.0001) %MON dynstat_theta_del2           =   1.1238575446191E-06
(PID.TID 0000.0001) %MON dynstat_salt_max             =   3.4700000000000E+01
(PID.TID 0000.0001) %MON dynstat_salt_min             =   3.4000000000000E+01
(PID.TID 0000.0001) %MON dynstat_salt_mean            =   3.4499217986442E+01
(PID.TID 0000.0001) %MON dynstat_salt_sd              =   2.7634834309171E-01
(PID.TID 0000.0001) %MON dynstat_salt_del2            =   4.1503122961908E-07
(PID.TID 0000.0001) %MON advcfl_uvel_max              =   5.5402256774544E-04
(PID.TID 0000.0001) %MON advcfl_vvel_max              =   4.9347301755240E-04
(PID.TID 0000.0001) %MON advcfl_wvel_max              =   1.0160860452480E-03
(PID.TID 0000.0001) %MON advcfl_W_hf_max              =   1.0160860452480E-03
(PID.TID 0000.0001) %MON pe_b_mean                    =  -8.3135963842696E-01
(PID.TID 0000.0001) %MON ke_max                       =   9.4666361486785E-06
(PID.TID 0000.0001) %MON ke_mean                      =   3.6736898561615E-08
(PID.TID 0000.0001) %MON ke_vol                       =   4.2725169443229E+12
(PID.TID 0000.0001) // =======================================================
(PID.TID 0000.0001) // End MONITOR dynamic field statistics
(PID.TID 0000.0001) // =======================================================
(PID.TID 0000.0001) // =======================================================
(PID.TID 0000.0001) // Begin OBCS MONITOR field statistics
(PID.TID 0000.0001) // =======================================================
(PID.TID 0000.0001) %MON obc_N_vVel_max               =   1.4727570799323E-05
(PID.TID 0000.0001) %MON obc_N_vVel_min               =   1.4727570799323E-05
(PID.TID 0000.0001) %MON obc_N_vVel_mean              =   1.4727570799323E-05
(PID.TID 0000.0001) %MON obc_N_vVel_sd                =  -2.4556924435168E-24
(PID.TID 0000.0001) %MON obc_N_vVel_Int               =   9.7201967275532E+02
(PID.TID 0000.0001) // =======================================================
(PID.TID 0000.0001) // End OBCS MONITOR field statistics
(PID.TID 0000.0001) // =======================================================
 cg2d: Sum(rhs),rhsMax =   4.51770017995526E+00  2.99895461979532E+02
(PID.TID 0000.0001)      cg2d_init_res =   6.09989200101357E-06
(PID.TID 0000.0001)      cg2d_iters(min,last) =      -1      77
(PID.TID 0000.0001)      cg2d_last_res =   9.87910983933692E-12
(PID.TID 0000.0001) // =======================================================
(PID.TID 0000.0001) // Begin MONITOR dynamic field statistics
(PID.TID 0000.0001) // =======================================================
(PID.TID 0000.0001) %MON time_tsnumber                =                   540
(PID.TID 0000.0001) %MON time_secondsf                =   5.4000000000000E+04
(PID.TID 0000.0001) %MON dynstat_eta_max              =   5.7985189238606E+00
(PID.TID 0000.0001) %MON dynstat_eta_min              =  -1.4199637113963E+01
(PID.TID 0000.0001) %MON dynstat_eta_mean             =  -2.5089588565791E+00
(PID.TID 0000.0001) %MON dynstat_eta_sd               =   4.9516389345309E+00
(PID.TID 0000.0001) %MON dynstat_eta_del2             =   2.0714183655692E-01
(PID.TID 0000.0001) %MON dynstat_uvel_max             =   1.5135419298575E-03
(PID.TID 0000.0001) %MON dynstat_uvel_min             =  -5.5570553554309E-03
(PID.TID 0000.0001) %MON dynstat_uvel_mean            =  -1.1795296760470E-07
(PID.TID 0000.0001) %MON dynstat_uvel_sd              =   2.1335012490637E-04
(PID.TID 0000.0001) %MON dynstat_uvel_del2            =   3.5810524420611E-07
(PID.TID 0000.0001) %MON dynstat_vvel_max             =   4.9475550160887E-03
(PID.TID 0000.0001) %MON dynstat_vvel_min             =  -2.3674521537647E-03
(PID.TID 0000.0001) %MON dynstat_vvel_mean            =   1.4958643612126E-05
(PID.TID 0000.0001) %MON dynstat_vvel_sd              =   1.6929917055535E-04
(PID.TID 0000.0001) %MON dynstat_vvel_del2            =   3.7403930076462E-07
(PID.TID 0000.0001) %MON dynstat_wvel_max             =   2.0083344149877E-04
(PID.TID 0000.0001) %MON dynstat_wvel_min             =  -2.0353516627048E-04
(PID.TID 0000.0001) %MON dynstat_wvel_mean            =   6.5901114604797E-09
(PID.TID 0000.0001) %MON dynstat_wvel_sd              =   2.2877953438470E-05
(PID.TID 0000.0001) %MON dynstat_wvel_del2            =   1.0337904717109E-07
(PID.TID 0000.0001) %MON dynstat_theta_max            =   1.2000000000000E+00
(PID.TID 0000.0001) %MON dynstat_theta_min            =  -1.0000000000000E+00
(PID.TID 0000.0001) %MON dynstat_theta_mean           =   5.6900927748276E-01
(PID.TID 0000.0001) %MON dynstat_theta_sd             =   8.6853433215832E-01
(PID.TID 0000.0001) %MON dynstat_theta_del2           =   1.1266304096247E-06
(PID.TID 0000.0001) %MON dynstat_salt_max             =   3.4700000000000E+01
(PID.TID 0000.0001) %MON dynstat_salt_min             =   3.4000000000000E+01
(PID.TID 0000.0001) %MON dynstat_salt_mean            =   3.4499217849350E+01
(PID.TID 0000.0001) %MON dynstat_salt_sd              =   2.7634827434498E-01
(PID.TID 0000.0001) %MON dynstat_salt_del2            =   4.1603626537916E-07
(PID.TID 0000.0001) %MON advcfl_uvel_max              =   5.5570553554309E-04
(PID.TID 0000.0001) %MON advcfl_vvel_max              =   4.9475550160887E-04
(PID.TID 0000.0001) %MON advcfl_wvel_max              =   1.0176758313524E-03
(PID.TID 0000.0001) %MON advcfl_W_hf_max              =   1.0176758313524E-03
(PID.TID 0000.0001) %MON pe_b_mean                    =  -8.3136347797338E-01
(PID.TID 0000.0001) %MON ke_max                       =   9.5217400546478E-06
(PID.TID 0000.0001) %MON ke_mean                      =   3.6749127039566E-08
(PID.TID 0000.0001) %MON ke_vol                       =   4.2725168643469E+12
(PID.TID 0000.0001) // =======================================================
(PID.TID 0000.0001) // End MONITOR dynamic field statistics
(PID.TID 0000.0001) // =======================================================
(PID.TID 0000.0001) // =======================================================
(PID.TID 0000.0001) // Begin OBCS MONITOR field statistics
(PID.TID 0000.0001) // =======================================================
(PID.TID 0000.0001) %MON obc_N_vVel_max               =   1.4727159495002E-05
(PID.TID 0000.0001) %MON obc_N_vVel_min               =   1.4727159495001E-05
(PID.TID 0000.0001) %MON obc_N_vVel_mean              =   1.4727159495001E-05
(PID.TID 0000.0001) %MON obc_N_vVel_sd                =   3.1505820653708E-12
(PID.TID 0000.0001) %MON obc_N_vVel_Int               =   9.7199252667009E+02
(PID.TID 0000.0001) // =======================================================
(PID.TID 0000.0001) // End OBCS MONITOR field statistics
(PID.TID 0000.0001) // =======================================================
 cg2d: Sum(rhs),rhsMax =   4.51772325916932E+00  2.99895538450449E+02
(PID.TID 0000.0001)      cg2d_init_res =   6.08303279748230E-06
(PID.TID 0000.0001)      cg2d_iters(min,last) =      -1      77
(PID.TID 0000.0001)      cg2d_last_res =   9.91086790952612E-12
(PID.TID 0000.0001) // =======================================================
(PID.TID 0000.0001) // Begin MONITOR dynamic field statistics
(PID.TID 0000.0001) // =======================================================
(PID.TID 0000.0001) %MON time_tsnumber                =                   541
(PID.TID 0000.0001) %MON time_secondsf                =   5.4100000000000E+04
(PID.TID 0000.0001) %MON dynstat_eta_max              =   5.7984953600669E+00
(PID.TID 0000.0001) %MON dynstat_eta_min              =  -1.4199651170762E+01
(PID.TID 0000.0001) %MON dynstat_eta_mean             =  -2.5089723136643E+00
(PID.TID 0000.0001) %MON dynstat_eta_sd               =   4.9516434120478E+00
(PID.TID 0000.0001) %MON dynstat_eta_del2             =   2.0714184638425E-01
(PID.TID 0000.0001) %MON dynstat_uvel_max             =   1.5163009161370E-03
(PID.TID 0000.0001) %MON dynstat_uvel_min             =  -5.5739233390932E-03
(PID.TID 0000.0001) %MON dynstat_uvel_mean            =  -1.1830492382367E-07
(PID.TID 0000.0001) %MON dynstat_uvel_sd              =   2.1371747368919E-04
(PID.TID 0000.0001) %MON dynstat_uvel_del2            =   3.5872168651379E-07
(PID.TID 0000.0001) %MON dynstat_vvel_max             =   4.9603925776518E-03
(PID.TID 0000.0001) %MON dynstat_vvel_min             =  -2.3754333255166E-03
(PID.TID 0000.0001) %MON dynstat_vvel_mean            =   1.4958563833711E-05
(PID.TID 0000.0001) %MON dynstat_vvel_sd              =   1.6887875787850E-04
(PID.TID 0000.0001) %MON dynstat_vvel_del2            =   3.7205527132167E-07
(PID.TID 0000.0001) %MON dynstat_wvel_max             =   1.9612913463537E-04
(PID.TID 0000.0001) %MON dynstat_wvel_min             =  -2.0421427665290E-04
(PID.TID 0000.0001) %MON dynstat_wvel_mean            =   6.5921488579831E-09
(PID.TID 0000.0001) %MON dynstat_wvel_sd              =   2.2165654320891E-05
(PID.TID 0000.0001) %MON dynstat_wvel_del2            =   1.0137941281278E-07
(PID.TID 0000.0001) %MON dynstat_theta_max            =   1.2000000000000E+00
(PID.TID 0000.0001) %MON dynstat_theta_min            =  -1.0000000000000E+00
(PID.TID 0000.0001) %MON dynstat_theta_mean           =   5.6900893460014E-01
(PID.TID 0000.0001) %MON dynstat_theta_sd             =   8.6853414732307E-01
(PID.TID 0000.0001) %MON dynstat_theta_del2           =   1.1298082841189E-06
(PID.TID 0000.0001) %MON dynstat_salt_max             =   3.4700000000000E+01
(PID.TID 0000.0001) %MON dynstat_salt_min             =   3.4000000000000E+01
(PID.TID 0000.0001) %MON dynstat_salt_mean            =   3.4499217712151E+01
(PID.TID 0000.0001) %MON dynstat_salt_sd              =   2.7634820550430E-01
(PID.TID 0000.0001) %MON dynstat_salt_del2            =   4.1715256074868E-07
(PID.TID 0000.0001) %MON advcfl_uvel_max              =   5.5739233390932E-04
(PID.TID 0000.0001) %MON advcfl_vvel_max              =   4.9603925776518E-04
(PID.TID 0000.0001) %MON advcfl_wvel_max              =   1.0210713832645E-03
(PID.TID 0000.0001) %MON advcfl_W_hf_max              =   1.0210713832645E-03
(PID.TID 0000.0001) %MON pe_b_mean                    =  -8.3136731638667E-01
(PID.TID 0000.0001) %MON ke_max                       =   9.5771433872885E-06
(PID.TID 0000.0001) %MON ke_mean                      =   3.6754932357992E-08
(PID.TID 0000.0001) %MON ke_vol                       =   4.2725167843919E+12
(PID.TID 0000.0001) // =======================================================
(PID.TID 0000.0001) // End MONITOR dynamic field statistics
(PID.TID 0000.0001) // =======================================================
(PID.TID 0000.0001) // =======================================================
(PID.TID 0000.0001) // Begin OBCS MONITOR field statistics
(PID.TID 0000.0001) // =======================================================
(PID.TID 0000.0001) %MON obc_N_vVel_max               =   1.4726937680522E-05
(PID.TID 0000.0001) %MON obc_N_vVel_min               =   1.4726937680522E-05
(PID.TID 0000.0001) %MON obc_N_vVel_mean              =   1.4726937680522E-05
(PID.TID 0000.0001) %MON obc_N_vVel_sd                =   4.0705603600982E-12
(PID.TID 0000.0001) %MON obc_N_vVel_Int               =   9.7197788691444E+02
(PID.TID 0000.0001) // =======================================================
(PID.TID 0000.0001) // End OBCS MONITOR field statistics
(PID.TID 0000.0001) // =======================================================
 cg2d: Sum(rhs),rhsMax =   4.51774633203492E+00  2.99895614969563E+02
(PID.TID 0000.0001)      cg2d_init_res =   6.06382784047826E-06
(PID.TID 0000.0001)      cg2d_iters(min,last) =      -1      77
(PID.TID 0000.0001)      cg2d_last_res =   9.94461459640997E-12
(PID.TID 0000.0001) // =======================================================
(PID.TID 0000.0001) // Begin MONITOR dynamic field statistics
(PID.TID 0000.0001) // =======================================================
(PID.TID 0000.0001) %MON time_tsnumber                =                   542
(PID.TID 0000.0001) %MON time_secondsf                =   5.4200000000000E+04
(PID.TID 0000.0001) %MON dynstat_eta_max              =   5.7984717970416E+00
(PID.TID 0000.0001) %MON dynstat_eta_min              =  -1.4199665218622E+01
(PID.TID 0000.0001) %MON dynstat_eta_mean             =  -2.5089857676335E+00
(PID.TID 0000.0001) %MON dynstat_eta_sd               =   4.9516478889919E+00
(PID.TID 0000.0001) %MON dynstat_eta_del2             =   2.0714185623172E-01
(PID.TID 0000.0001) %MON dynstat_uvel_max             =   1.5190531780114E-03
(PID.TID 0000.0001) %MON dynstat_uvel_min             =  -5.5908297371898E-03
(PID.TID 0000.0001) %MON dynstat_uvel_mean            =  -1.1865457627593E-07
(PID.TID 0000.0001) %MON dynstat_uvel_sd              =   2.1408443240514E-04
(PID.TID 0000.0001) %MON dynstat_uvel_del2            =   3.5933874144537E-07
(PID.TID 0000.0001) %MON dynstat_vvel_max             =   4.9732428877638E-03
(PID.TID 0000.0001) %MON dynstat_vvel_min             =  -2.3834203211246E-03
(PID.TID 0000.0001) %MON dynstat_vvel_mean            =   1.4958731385622E-05
(PID.TID 0000.0001) %MON dynstat_vvel_sd              =   1.6844481297090E-04
(PID.TID 0000.0001) %MON dynstat_vvel_del2            =   3.6996406222810E-07
(PID.TID 0000.0001) %MON dynstat_wvel_max             =   1.8915429736333E-04
(PID.TID 0000.0001) %MON dynstat_wvel_min             =  -2.0489457608538E-04
(PID.TID 0000.0001) %MON dynstat_wvel_mean            =   6.5946034951721E-09
(PID.TID 0000.0001) %MON dynstat_wvel_sd              =   2.1411046119572E-05
(PID.TID 0000.0001) %MON dynstat_wvel_del2            =   9.9090439827507E-08
(PID.TID 0000.0001) %MON dynstat_theta_max            =   1.2000000000000E+00
(PID.TID 0000.0001) %MON dynstat_theta_min            =  -1.0000000000000E+00
(PID.TID 0000.0001) %MON dynstat_theta_mean           =   5.6900859147615E-01
(PID.TID 0000.0001) %MON dynstat_theta_sd             =   8.6853396224441E-01
(PID.TID 0000.0001) %MON dynstat_theta_del2           =   1.1332413330718E-06
(PID.TID 0000.0001) %MON dynstat_salt_max             =   3.4700000000000E+01
(PID.TID 0000.0001) %MON dynstat_salt_min             =   3.4000000000000E+01
(PID.TID 0000.0001) %MON dynstat_salt_mean            =   3.4499217574845E+01
(PID.TID 0000.0001) %MON dynstat_salt_sd              =   2.7634813656678E-01
(PID.TID 0000.0001) %MON dynstat_salt_del2            =   4.1833907129744E-07
(PID.TID 0000.0001) %MON advcfl_uvel_max              =   5.5908297371898E-04
(PID.TID 0000.0001) %MON advcfl_vvel_max              =   4.9732428877638E-04
(PID.TID 0000.0001) %MON advcfl_wvel_max              =   1.0244728804269E-03
(PID.TID 0000.0001) %MON advcfl_W_hf_max              =   1.0244728804269E-03
(PID.TID 0000.0001) %MON pe_b_mean                    =  -8.3137115372962E-01
(PID.TID 0000.0001) %MON ke_max                       =   9.6328477761394E-06
(PID.TID 0000.0001) %MON ke_mean                      =   3.6758689177067E-08
(PID.TID 0000.0001) %MON ke_vol                       =   4.2725167044568E+12
(PID.TID 0000.0001) // =======================================================
(PID.TID 0000.0001) // End MONITOR dynamic field statistics
(PID.TID 0000.0001) // =======================================================
(PID.TID 0000.0001) // =======================================================
(PID.TID 0000.0001) // Begin OBCS MONITOR field statistics
(PID.TID 0000.0001) // =======================================================
(PID.TID 0000.0001) %MON obc_N_vVel_max               =   1.4726921251923E-05
(PID.TID 0000.0001) %MON obc_N_vVel_min               =   1.4726921251922E-05
(PID.TID 0000.0001) %MON obc_N_vVel_mean              =   1.4726921251923E-05
(PID.TID 0000.0001) %MON obc_N_vVel_sd                =  -7.9099146075383E-24
(PID.TID 0000.0001) %MON obc_N_vVel_Int               =   9.7197680262690E+02
(PID.TID 0000.0001) // =======================================================
(PID.TID 0000.0001) // End OBCS MONITOR field statistics
(PID.TID 0000.0001) // =======================================================
 cg2d: Sum(rhs),rhsMax =   4.51776939902010E+00  2.99895691534069E+02
(PID.TID 0000.0001)      cg2d_init_res =   6.04305929397212E-06
(PID.TID 0000.0001)      cg2d_iters(min,last) =      -1      77
(PID.TID 0000.0001)      cg2d_last_res =   9.97615513427212E-12
(PID.TID 0000.0001) // =======================================================
(PID.TID 0000.0001) // Begin MONITOR dynamic field statistics
(PID.TID 0000.0001) // =======================================================
(PID.TID 0000.0001) %MON time_tsnumber                =                   543
(PID.TID 0000.0001) %MON time_secondsf                =   5.4300000000000E+04
(PID.TID 0000.0001) %MON dynstat_eta_max              =   5.7984482352033E+00
(PID.TID 0000.0001) %MON dynstat_eta_min              =  -1.4199679257555E+01
(PID.TID 0000.0001) %MON dynstat_eta_mean             =  -2.5089992187233E+00
(PID.TID 0000.0001) %MON dynstat_eta_sd               =   4.9516523654460E+00
(PID.TID 0000.0001) %MON dynstat_eta_del2             =   2.0714186609926E-01
(PID.TID 0000.0001) %MON dynstat_uvel_max             =   1.5217988985272E-03
(PID.TID 0000.0001) %MON dynstat_uvel_min             =  -5.6077746586416E-03
(PID.TID 0000.0001) %MON dynstat_uvel_mean            =  -1.1896111664689E-07
(PID.TID 0000.0001) %MON dynstat_uvel_sd              =   2.1445081467428E-04
(PID.TID 0000.0001) %MON dynstat_uvel_del2            =   3.5995567957170E-07
(PID.TID 0000.0001) %MON dynstat_vvel_max             =   4.9861059825833E-03
(PID.TID 0000.0001) %MON dynstat_vvel_min             =  -2.3914131081888E-03
(PID.TID 0000.0001) %MON dynstat_vvel_mean            =   1.4959143845047E-05
(PID.TID 0000.0001) %MON dynstat_vvel_sd              =   1.6802400956058E-04
(PID.TID 0000.0001) %MON dynstat_vvel_del2            =   3.6787233078094E-07
(PID.TID 0000.0001) %MON dynstat_wvel_max             =   1.7998794272940E-04
(PID.TID 0000.0001) %MON dynstat_wvel_min             =  -2.0557607356701E-04
(PID.TID 0000.0001) %MON dynstat_wvel_mean            =   6.5973447061364E-09
(PID.TID 0000.0001) %MON dynstat_wvel_sd              =   2.0644291671173E-05
(PID.TID 0000.0001) %MON dynstat_wvel_del2            =   9.6595075043678E-08
(PID.TID 0000.0001) %MON dynstat_theta_max            =   1.2000000000000E+00
(PID.TID 0000.0001) %MON dynstat_theta_min            =  -1.0000000000000E+00
(PID.TID 0000.0001) %MON dynstat_theta_mean           =   5.6900824810834E-01
(PID.TID 0000.0001) %MON dynstat_theta_sd             =   8.6853377692209E-01
(PID.TID 0000.0001) %MON dynstat_theta_del2           =   1.1367677620916E-06
(PID.TID 0000.0001) %MON dynstat_salt_max             =   3.4700000000000E+01
(PID.TID 0000.0001) %MON dynstat_salt_min             =   3.4000000000000E+01
(PID.TID 0000.0001) %MON dynstat_salt_mean            =   3.4499217437431E+01
(PID.TID 0000.0001) %MON dynstat_salt_sd              =   2.7634806753217E-01
(PID.TID 0000.0001) %MON dynstat_salt_del2            =   4.1955143782982E-07
(PID.TID 0000.0001) %MON advcfl_uvel_max              =   5.6077746586416E-04
(PID.TID 0000.0001) %MON advcfl_vvel_max              =   4.9861059825833E-04
(PID.TID 0000.0001) %MON advcfl_wvel_max              =   1.0278803678351E-03
(PID.TID 0000.0001) %MON advcfl_W_hf_max              =   1.0278803678351E-03
(PID.TID 0000.0001) %MON pe_b_mean                    =  -8.3137499006336E-01
(PID.TID 0000.0001) %MON ke_max                       =   9.6888548521766E-06
(PID.TID 0000.0001) %MON ke_mean                      =   3.6764856548480E-08
(PID.TID 0000.0001) %MON ke_vol                       =   4.2725166245403E+12
(PID.TID 0000.0001) // =======================================================
(PID.TID 0000.0001) // End MONITOR dynamic field statistics
(PID.TID 0000.0001) // =======================================================
(PID.TID 0000.0001) // =======================================================
(PID.TID 0000.0001) // Begin OBCS MONITOR field statistics
(PID.TID 0000.0001) // =======================================================
(PID.TID 0000.0001) %MON obc_N_vVel_max               =   1.4727118331150E-05
(PID.TID 0000.0001) %MON obc_N_vVel_min               =   1.4727118331150E-05
(PID.TID 0000.0001) %MON obc_N_vVel_mean              =   1.4727118331150E-05
(PID.TID 0000.0001) %MON obc_N_vVel_sd                =   2.3354276190928E-12
(PID.TID 0000.0001) %MON obc_N_vVel_Int               =   9.7198980985587E+02
(PID.TID 0000.0001) // =======================================================
(PID.TID 0000.0001) // End OBCS MONITOR field statistics
(PID.TID 0000.0001) // =======================================================
 cg2d: Sum(rhs),rhsMax =   4.51779246059934E+00  2.99895768140338E+02
(PID.TID 0000.0001)      cg2d_init_res =   6.02165602331680E-06
(PID.TID 0000.0001)      cg2d_iters(min,last) =      -1      78
(PID.TID 0000.0001)      cg2d_last_res =   7.37987729988905E-12
(PID.TID 0000.0001) // =======================================================
(PID.TID 0000.0001) // Begin MONITOR dynamic field statistics
(PID.TID 0000.0001) // =======================================================
(PID.TID 0000.0001) %MON time_tsnumber                =                   544
(PID.TID 0000.0001) %MON time_secondsf                =   5.4400000000000E+04
(PID.TID 0000.0001) %MON dynstat_eta_max              =   5.7984246746767E+00
(PID.TID 0000.0001) %MON dynstat_eta_min              =  -1.4199693287616E+01
(PID.TID 0000.0001) %MON dynstat_eta_mean             =  -2.5090126671668E+00
(PID.TID 0000.0001) %MON dynstat_eta_sd               =   4.9516568414807E+00
(PID.TID 0000.0001) %MON dynstat_eta_del2             =   2.0714187598630E-01
(PID.TID 0000.0001) %MON dynstat_uvel_max             =   1.5245382237898E-03
(PID.TID 0000.0001) %MON dynstat_uvel_min             =  -5.6247582223721E-03
(PID.TID 0000.0001) %MON dynstat_uvel_mean            =  -1.1919422841685E-07
(PID.TID 0000.0001) %MON dynstat_uvel_sd              =   2.1481644745334E-04
(PID.TID 0000.0001) %MON dynstat_uvel_del2            =   3.6057183914962E-07
(PID.TID 0000.0001) %MON dynstat_vvel_max             =   4.9989819036433E-03
(PID.TID 0000.0001) %MON dynstat_vvel_min             =  -2.3994116378052E-03
(PID.TID 0000.0001) %MON dynstat_vvel_mean            =   1.4959790275625E-05
(PID.TID 0000.0001) %MON dynstat_vvel_sd              =   1.6764254990565E-04
(PID.TID 0000.0001) %MON dynstat_vvel_del2            =   3.6589146451477E-07
(PID.TID 0000.0001) %MON dynstat_wvel_max             =   1.7236344823250E-04
(PID.TID 0000.0001) %MON dynstat_wvel_min             =  -2.0625878170619E-04
(PID.TID 0000.0001) %MON dynstat_wvel_mean            =   6.6002397837021E-09
(PID.TID 0000.0001) %MON dynstat_wvel_sd              =   1.9899723341426E-05
(PID.TID 0000.0001) %MON dynstat_wvel_del2            =   9.3994434992312E-08
(PID.TID 0000.0001) %MON dynstat_theta_max            =   1.2000000000000E+00
(PID.TID 0000.0001) %MON dynstat_theta_min            =  -1.0000000000000E+00
(PID.TID 0000.0001) %MON dynstat_theta_mean           =   5.6900790449126E-01
(PID.TID 0000.0001) %MON dynstat_theta_sd             =   8.6853359136710E-01
(PID.TID 0000.0001) %MON dynstat_theta_del2           =   1.1402217914094E-06
(PID.TID 0000.0001) %MON dynstat_salt_max             =   3.4700000000000E+01
(PID.TID 0000.0001) %MON dynstat_salt_min             =   3.4000000000000E+01
(PID.TID 0000.0001) %MON dynstat_salt_mean            =   3.4499217299907E+01
(PID.TID 0000.0001) %MON dynstat_salt_sd              =   2.7634799840403E-01
(PID.TID 0000.0001) %MON dynstat_salt_del2            =   4.2074419062730E-07
(PID.TID 0000.0001) %MON advcfl_uvel_max              =   5.6247582223721E-04
(PID.TID 0000.0001) %MON advcfl_vvel_max              =   4.9989819036433E-04
(PID.TID 0000.0001) %MON advcfl_wvel_max              =   1.0312939085310E-03
(PID.TID 0000.0001) %MON advcfl_W_hf_max              =   1.0312939085310E-03
(PID.TID 0000.0001) %MON pe_b_mean                    =  -8.3137882544402E-01
(PID.TID 0000.0001) %MON ke_max                       =   9.7451662566887E-06
(PID.TID 0000.0001) %MON ke_mean                      =   3.6777772543829E-08
(PID.TID 0000.0001) %MON ke_vol                       =   4.2725165446408E+12
(PID.TID 0000.0001) // =======================================================
(PID.TID 0000.0001) // End MONITOR dynamic field statistics
(PID.TID 0000.0001) // =======================================================
(PID.TID 0000.0001) // =======================================================
(PID.TID 0000.0001) // Begin OBCS MONITOR field statistics
(PID.TID 0000.0001) // =======================================================
(PID.TID 0000.0001) %MON obc_N_vVel_max               =   1.4727527911023E-05
(PID.TID 0000.0001) %MON obc_N_vVel_min               =   1.4727527911023E-05
(PID.TID 0000.0001) %MON obc_N_vVel_mean              =   1.4727527911023E-05
(PID.TID 0000.0001) %MON obc_N_vVel_sd                =   9.9109887367846E-13
(PID.TID 0000.0001) %MON obc_N_vVel_Int               =   9.7201684212753E+02
(PID.TID 0000.0001) // =======================================================
(PID.TID 0000.0001) // End OBCS MONITOR field statistics
(PID.TID 0000.0001) // =======================================================
 cg2d: Sum(rhs),rhsMax =   4.51781551724979E+00  2.99895844783451E+02
(PID.TID 0000.0001)      cg2d_init_res =   6.00044674350702E-06
(PID.TID 0000.0001)      cg2d_iters(min,last) =      -1      78
(PID.TID 0000.0001)      cg2d_last_res =   7.40597807189485E-12
(PID.TID 0000.0001) // =======================================================
(PID.TID 0000.0001) // Begin MONITOR dynamic field statistics
(PID.TID 0000.0001) // =======================================================
(PID.TID 0000.0001) %MON time_tsnumber                =                   545
(PID.TID 0000.0001) %MON time_secondsf                =   5.4500000000000E+04
(PID.TID 0000.0001) %MON dynstat_eta_max              =   5.7984011172457E+00
(PID.TID 0000.0001) %MON dynstat_eta_min              =  -1.4199707307702E+01
(PID.TID 0000.0001) %MON dynstat_eta_mean             =  -2.5090261131878E+00
(PID.TID 0000.0001) %MON dynstat_eta_sd               =   4.9516613171715E+00
(PID.TID 0000.0001) %MON dynstat_eta_del2             =   2.0714188589335E-01
(PID.TID 0000.0001) %MON dynstat_uvel_max             =   1.5272712747709E-03
(PID.TID 0000.0001) %MON dynstat_uvel_min             =  -5.6417805193538E-03
(PID.TID 0000.0001) %MON dynstat_uvel_mean            =  -1.1933542273631E-07
(PID.TID 0000.0001) %MON dynstat_uvel_sd              =   2.1518117720524E-04
(PID.TID 0000.0001) %MON dynstat_uvel_del2            =   3.6118665106370E-07
(PID.TID 0000.0001) %MON dynstat_vvel_max             =   5.0118707201756E-03
(PID.TID 0000.0001) %MON dynstat_vvel_min             =  -2.4074159511347E-03
(PID.TID 0000.0001) %MON dynstat_vvel_mean            =   1.4960651096662E-05
(PID.TID 0000.0001) %MON dynstat_vvel_sd              =   1.6732490450076E-04
(PID.TID 0000.0001) %MON dynstat_vvel_del2            =   3.6413197995310E-07
(PID.TID 0000.0001) %MON dynstat_wvel_max             =   1.7311960674776E-04
(PID.TID 0000.0001) %MON dynstat_wvel_min             =  -2.0694269573268E-04
(PID.TID 0000.0001) %MON dynstat_wvel_mean            =   6.6032161605324E-09
(PID.TID 0000.0001) %MON dynstat_wvel_sd              =   1.9214766535359E-05
(PID.TID 0000.0001) %MON dynstat_wvel_del2            =   9.1405943676584E-08
(PID.TID 0000.0001) %MON dynstat_theta_max            =   1.2000000000000E+00
(PID.TID 0000.0001) %MON dynstat_theta_min            =  -1.0000000000000E+00
(PID.TID 0000.0001) %MON dynstat_theta_mean           =   5.6900756061721E-01
(PID.TID 0000.0001) %MON dynstat_theta_sd             =   8.6853340559482E-01
(PID.TID 0000.0001) %MON dynstat_theta_del2           =   1.1434417699817E-06
(PID.TID 0000.0001) %MON dynstat_salt_max             =   3.4700000000000E+01
(PID.TID 0000.0001) %MON dynstat_salt_min             =   3.4000000000000E+01
(PID.TID 0000.0001) %MON dynstat_salt_mean            =   3.4499217162270E+01
(PID.TID 0000.0001) %MON dynstat_salt_sd              =   2.7634792918737E-01
(PID.TID 0000.0001) %MON dynstat_salt_del2            =   4.2187299833273E-07
(PID.TID 0000.0001) %MON advcfl_uvel_max              =   5.6417805193538E-04
(PID.TID 0000.0001) %MON advcfl_vvel_max              =   5.0118707201756E-04
(PID.TID 0000.0001) %MON advcfl_wvel_max              =   1.0347134786634E-03
(PID.TID 0000.0001) %MON advcfl_W_hf_max              =   1.0347134786634E-03
(PID.TID 0000.0001) %MON pe_b_mean                    =  -8.3138265992400E-01
(PID.TID 0000.0001) %MON ke_max                       =   9.8017836146984E-06
(PID.TID 0000.0001) %MON ke_mean                      =   3.6801452523743E-08
(PID.TID 0000.0001) %MON ke_vol                       =   4.2725164647570E+12
(PID.TID 0000.0001) // =======================================================
(PID.TID 0000.0001) // End MONITOR dynamic field statistics
(PID.TID 0000.0001) // =======================================================
(PID.TID 0000.0001) // =======================================================
(PID.TID 0000.0001) // Begin OBCS MONITOR field statistics
(PID.TID 0000.0001) // =======================================================
(PID.TID 0000.0001) %MON obc_N_vVel_max               =   1.4728138225675E-05
(PID.TID 0000.0001) %MON obc_N_vVel_min               =   1.4728138225675E-05
(PID.TID 0000.0001) %MON obc_N_vVel_mean              =   1.4728138225675E-05
(PID.TID 0000.0001) %MON obc_N_vVel_sd                =  -3.1019272970739E-24
(PID.TID 0000.0001) %MON obc_N_vVel_Int               =   9.7205712289455E+02
(PID.TID 0000.0001) // =======================================================
(PID.TID 0000.0001) // End OBCS MONITOR field statistics
(PID.TID 0000.0001) // =======================================================
 cg2d: Sum(rhs),rhsMax =   4.51783856939899E+00  2.99895921459615E+02
(PID.TID 0000.0001)      cg2d_init_res =   5.98080006375447E-06
(PID.TID 0000.0001)      cg2d_iters(min,last) =      -1      78
(PID.TID 0000.0001)      cg2d_last_res =   7.43564755380268E-12
(PID.TID 0000.0001) // =======================================================
(PID.TID 0000.0001) // Begin MONITOR dynamic field statistics
(PID.TID 0000.0001) // =======================================================
(PID.TID 0000.0001) %MON time_tsnumber                =                   546
(PID.TID 0000.0001) %MON time_secondsf                =   5.4600000000000E+04
(PID.TID 0000.0001) %MON dynstat_eta_max              =   5.7983775632982E+00
(PID.TID 0000.0001) %MON dynstat_eta_min              =  -1.4199721317596E+01
(PID.TID 0000.0001) %MON dynstat_eta_mean             =  -2.5090395569920E+00
(PID.TID 0000.0001) %MON dynstat_eta_sd               =   4.9516657925674E+00
(PID.TID 0000.0001) %MON dynstat_eta_del2             =   2.0714189581992E-01
(PID.TID 0000.0001) %MON dynstat_uvel_max             =   1.5299980979853E-03
(PID.TID 0000.0001) %MON dynstat_uvel_min             =  -5.6588416906322E-03
(PID.TID 0000.0001) %MON dynstat_uvel_mean            =  -1.1937976426328E-07
(PID.TID 0000.0001) %MON dynstat_uvel_sd              =   2.1554487523589E-04
(PID.TID 0000.0001) %MON dynstat_uvel_del2            =   3.6179966008043E-07
(PID.TID 0000.0001) %MON dynstat_vvel_max             =   5.0247724837043E-03
(PID.TID 0000.0001) %MON dynstat_vvel_min             =  -2.4154259700593E-03
(PID.TID 0000.0001) %MON dynstat_vvel_mean            =   1.4961699840851E-05
(PID.TID 0000.0001) %MON dynstat_vvel_sd              =   1.6709258388103E-04
(PID.TID 0000.0001) %MON dynstat_vvel_del2            =   3.6269736108035E-07
(PID.TID 0000.0001) %MON dynstat_wvel_max             =   1.7387757704567E-04
(PID.TID 0000.0001) %MON dynstat_wvel_min             =  -2.0762783541699E-04
(PID.TID 0000.0001) %MON dynstat_wvel_mean            =   6.6061294983603E-09
(PID.TID 0000.0001) %MON dynstat_wvel_sd              =   1.8627929877904E-05
(PID.TID 0000.0001) %MON dynstat_wvel_del2            =   8.8959513638634E-08
(PID.TID 0000.0001) %MON dynstat_theta_max            =   1.2000000000000E+00
(PID.TID 0000.0001) %MON dynstat_theta_min            =  -1.0000000000000E+00
(PID.TID 0000.0001) %MON dynstat_theta_mean           =   5.6900721647578E-01
(PID.TID 0000.0001) %MON dynstat_theta_sd             =   8.6853321958942E-01
(PID.TID 0000.0001) %MON dynstat_theta_del2           =   1.1462783213191E-06
(PID.TID 0000.0001) %MON dynstat_salt_max             =   3.4700000000000E+01
(PID.TID 0000.0001) %MON dynstat_salt_min             =   3.4000000000000E+01
(PID.TID 0000.0001) %MON dynstat_salt_mean            =   3.4499217024518E+01
(PID.TID 0000.0001) %MON dynstat_salt_sd              =   2.7634785987692E-01
(PID.TID 0000.0001) %MON dynstat_salt_del2            =   4.2289690021932E-07
(PID.TID 0000.0001) %MON advcfl_uvel_max              =   5.6588416906322E-04
(PID.TID 0000.0001) %MON advcfl_vvel_max              =   5.0247724837043E-04
(PID.TID 0000.0001) %MON advcfl_wvel_max              =   1.0381391770850E-03
(PID.TID 0000.0001) %MON advcfl_W_hf_max              =   1.0381391770850E-03
(PID.TID 0000.0001) %MON pe_b_mean                    =  -8.3138649354750E-01
(PID.TID 0000.0001) %MON ke_max                       =   9.8587085889756E-06
(PID.TID 0000.0001) %MON ke_mean                      =   3.6839400833458E-08
(PID.TID 0000.0001) %MON ke_vol                       =   4.2725163848877E+12
(PID.TID 0000.0001) // =======================================================
(PID.TID 0000.0001) // End MONITOR dynamic field statistics
(PID.TID 0000.0001) // =======================================================
(PID.TID 0000.0001) // =======================================================
(PID.TID 0000.0001) // Begin OBCS MONITOR field statistics
(PID.TID 0000.0001) // =======================================================
(PID.TID 0000.0001) %MON obc_N_vVel_max               =   1.4728933572238E-05
(PID.TID 0000.0001) %MON obc_N_vVel_min               =   1.4728933572237E-05
(PID.TID 0000.0001) %MON obc_N_vVel_mean              =   1.4728933572238E-05
(PID.TID 0000.0001) %MON obc_N_vVel_sd                =  -1.3622630712983E-23
(PID.TID 0000.0001) %MON obc_N_vVel_Int               =   9.7210961576768E+02
(PID.TID 0000.0001) // =======================================================
(PID.TID 0000.0001) // End OBCS MONITOR field statistics
(PID.TID 0000.0001) // =======================================================
 cg2d: Sum(rhs),rhsMax =   4.51786161744903E+00  2.99895998162892E+02
(PID.TID 0000.0001)      cg2d_init_res =   5.96353408806648E-06
(PID.TID 0000.0001)      cg2d_iters(min,last) =      -1      78
(PID.TID 0000.0001)      cg2d_last_res =   7.46824667086545E-12
(PID.TID 0000.0001) // =======================================================
(PID.TID 0000.0001) // Begin MONITOR dynamic field statistics
(PID.TID 0000.0001) // =======================================================
(PID.TID 0000.0001) %MON time_tsnumber                =                   547
(PID.TID 0000.0001) %MON time_secondsf                =   5.4700000000000E+04
(PID.TID 0000.0001) %MON dynstat_eta_max              =   5.7983540137633E+00
(PID.TID 0000.0001) %MON dynstat_eta_min              =  -1.4199735316718E+01
(PID.TID 0000.0001) %MON dynstat_eta_mean             =  -2.5090529987531E+00
(PID.TID 0000.0001) %MON dynstat_eta_sd               =   4.9516702677060E+00
(PID.TID 0000.0001) %MON dynstat_eta_del2             =   2.0714190576589E-01
(PID.TID 0000.0001) %MON dynstat_uvel_max             =   1.5327187167369E-03
(PID.TID 0000.0001) %MON dynstat_uvel_min             =  -5.6759418517602E-03
(PID.TID 0000.0001) %MON dynstat_uvel_mean            =  -1.1933409513334E-07
(PID.TID 0000.0001) %MON dynstat_uvel_sd              =   2.1590744224921E-04
(PID.TID 0000.0001) %MON dynstat_uvel_del2            =   3.6241054132528E-07
(PID.TID 0000.0001) %MON dynstat_vvel_max             =   5.0376872705371E-03
(PID.TID 0000.0001) %MON dynstat_vvel_min             =  -2.4234417041011E-03
(PID.TID 0000.0001) %MON dynstat_vvel_mean            =   1.4962902810346E-05
(PID.TID 0000.0001) %MON dynstat_vvel_sd              =   1.6696301857743E-04
(PID.TID 0000.0001) %MON dynstat_vvel_del2            =   3.6167773099896E-07
(PID.TID 0000.0001) %MON dynstat_wvel_max             =   1.7463736555500E-04
(PID.TID 0000.0001) %MON dynstat_wvel_min             =  -2.0831420227852E-04
(PID.TID 0000.0001) %MON dynstat_wvel_mean            =   6.6089437578048E-09
(PID.TID 0000.0001) %MON dynstat_wvel_sd              =   1.8175677813020E-05
(PID.TID 0000.0001) %MON dynstat_wvel_del2            =   8.6791116380641E-08
(PID.TID 0000.0001) %MON dynstat_theta_max            =   1.2000000000000E+00
(PID.TID 0000.0001) %MON dynstat_theta_min            =  -1.0000000000000E+00
(PID.TID 0000.0001) %MON dynstat_theta_mean           =   5.6900687205425E-01
(PID.TID 0000.0001) %MON dynstat_theta_sd             =   8.6853303334781E-01
(PID.TID 0000.0001) %MON dynstat_theta_del2           =   1.1486029890614E-06
(PID.TID 0000.0001) %MON dynstat_salt_max             =   3.4700000000000E+01
(PID.TID 0000.0001) %MON dynstat_salt_min             =   3.4000000000000E+01
(PID.TID 0000.0001) %MON dynstat_salt_mean            =   3.4499216886646E+01
(PID.TID 0000.0001) %MON dynstat_salt_sd              =   2.7634779047178E-01
(PID.TID 0000.0001) %MON dynstat_salt_del2            =   4.2378058890076E-07
(PID.TID 0000.0001) %MON advcfl_uvel_max              =   5.6759418517602E-04
(PID.TID 0000.0001) %MON advcfl_vvel_max              =   5.0376872705371E-04
(PID.TID 0000.0001) %MON advcfl_wvel_max              =   1.0415710113926E-03
(PID.TID 0000.0001) %MON advcfl_W_hf_max              =   1.0415710113926E-03
(PID.TID 0000.0001) %MON pe_b_mean                    =  -8.3139032635067E-01
(PID.TID 0000.0001) %MON ke_max                       =   9.9159428328788E-06
(PID.TID 0000.0001) %MON ke_mean                      =   3.6894445239432E-08
(PID.TID 0000.0001) %MON ke_vol                       =   4.2725163050315E+12
(PID.TID 0000.0001) // =======================================================
(PID.TID 0000.0001) // End MONITOR dynamic field statistics
(PID.TID 0000.0001) // =======================================================
(PID.TID 0000.0001) // =======================================================
(PID.TID 0000.0001) // Begin OBCS MONITOR field statistics
(PID.TID 0000.0001) // =======================================================
(PID.TID 0000.0001) %MON obc_N_vVel_max               =   1.4729883348564E-05
(PID.TID 0000.0001) %MON obc_N_vVel_min               =   1.4729883348564E-05
(PID.TID 0000.0001) %MON obc_N_vVel_mean              =   1.4729883348564E-05
(PID.TID 0000.0001) %MON obc_N_vVel_sd                =  -1.4062070413401E-23
(PID.TID 0000.0001) %MON obc_N_vVel_Int               =   9.7217230100524E+02
(PID.TID 0000.0001) // =======================================================
(PID.TID 0000.0001) // End OBCS MONITOR field statistics
(PID.TID 0000.0001) // =======================================================
 cg2d: Sum(rhs),rhsMax =   4.51788466173481E+00  2.99896074887479E+02
(PID.TID 0000.0001)      cg2d_init_res =   5.94955450286103E-06
(PID.TID 0000.0001)      cg2d_iters(min,last) =      -1      78
(PID.TID 0000.0001)      cg2d_last_res =   7.50167247359763E-12
(PID.TID 0000.0001) // =======================================================
(PID.TID 0000.0001) // Begin MONITOR dynamic field statistics
(PID.TID 0000.0001) // =======================================================
(PID.TID 0000.0001) %MON time_tsnumber                =                   548
(PID.TID 0000.0001) %MON time_secondsf                =   5.4800000000000E+04
(PID.TID 0000.0001) %MON dynstat_eta_max              =   5.7983304695374E+00
(PID.TID 0000.0001) %MON dynstat_eta_min              =  -1.4199757044321E+01
(PID.TID 0000.0001) %MON dynstat_eta_mean             =  -2.5090664386085E+00
(PID.TID 0000.0001) %MON dynstat_eta_sd               =   4.9516747426060E+00
(PID.TID 0000.0001) %MON dynstat_eta_del2             =   2.0714191573110E-01
(PID.TID 0000.0001) %MON dynstat_uvel_max             =   1.5354331104822E-03
(PID.TID 0000.0001) %MON dynstat_uvel_min             =  -5.6930811279203E-03
(PID.TID 0000.0001) %MON dynstat_uvel_mean            =  -1.1921444881079E-07
(PID.TID 0000.0001) %MON dynstat_uvel_sd              =   2.1626881176192E-04
(PID.TID 0000.0001) %MON dynstat_uvel_del2            =   3.6301911160838E-07
(PID.TID 0000.0001) %MON dynstat_vvel_max             =   5.0506151575398E-03
(PID.TID 0000.0001) %MON dynstat_vvel_min             =  -2.4314631500157E-03
(PID.TID 0000.0001) %MON dynstat_vvel_mean            =   1.4964221302305E-05
(PID.TID 0000.0001) %MON dynstat_vvel_sd              =   1.6694862482312E-04
(PID.TID 0000.0001) %MON dynstat_vvel_del2            =   3.6114384937406E-07
(PID.TID 0000.0001) %MON dynstat_wvel_max             =   1.7539897616815E-04
(PID.TID 0000.0001) %MON dynstat_wvel_min             =  -2.0900180184108E-04
(PID.TID 0000.0001) %MON dynstat_wvel_mean            =   6.6115930676836E-09
(PID.TID 0000.0001) %MON dynstat_wvel_sd              =   1.7888319808232E-05
(PID.TID 0000.0001) %MON dynstat_wvel_del2            =   8.5033239570059E-08
(PID.TID 0000.0001) %MON dynstat_theta_max            =   1.2000000000000E+00
(PID.TID 0000.0001) %MON dynstat_theta_min            =  -1.0000000000000E+00
(PID.TID 0000.0001) %MON dynstat_theta_mean           =   5.6900652733748E-01
(PID.TID 0000.0001) %MON dynstat_theta_sd             =   8.6853284688823E-01
(PID.TID 0000.0001) %MON dynstat_theta_del2           =   1.1503140755836E-06
(PID.TID 0000.0001) %MON dynstat_salt_max             =   3.4700000000000E+01
(PID.TID 0000.0001) %MON dynstat_salt_min             =   3.4000000000000E+01
(PID.TID 0000.0001) %MON dynstat_salt_mean            =   3.4499216748650E+01
(PID.TID 0000.0001) %MON dynstat_salt_sd              =   2.7634772097778E-01
(PID.TID 0000.0001) %MON dynstat_salt_del2            =   4.2449615908674E-07
(PID.TID 0000.0001) %MON advcfl_uvel_max              =   5.6930811279203E-04
(PID.TID 0000.0001) %MON advcfl_vvel_max              =   5.0506151575398E-04
(PID.TID 0000.0001) %MON advcfl_wvel_max              =   1.0450090092054E-03
(PID.TID 0000.0001) %MON advcfl_W_hf_max              =   1.0450090092054E-03
(PID.TID 0000.0001) %MON pe_b_mean                    =  -8.3139415835963E-01
(PID.TID 0000.0001) %MON ke_max                       =   9.9734880080870E-06
(PID.TID 0000.0001) %MON ke_mean                      =   3.6968602546061E-08
(PID.TID 0000.0001) %MON ke_vol                       =   4.2725162251874E+12
(PID.TID 0000.0001) // =======================================================
(PID.TID 0000.0001) // End MONITOR dynamic field statistics
(PID.TID 0000.0001) // =======================================================
(PID.TID 0000.0001) // =======================================================
(PID.TID 0000.0001) // Begin OBCS MONITOR field statistics
(PID.TID 0000.0001) // =======================================================
(PID.TID 0000.0001) %MON obc_N_vVel_max               =   1.4730955371650E-05
(PID.TID 0000.0001) %MON obc_N_vVel_min               =   1.4730955371650E-05
(PID.TID 0000.0001) %MON obc_N_vVel_mean              =   1.4730955371650E-05
(PID.TID 0000.0001) %MON obc_N_vVel_sd                =   3.9513332005715E-12
(PID.TID 0000.0001) %MON obc_N_vVel_Int               =   9.7224305452889E+02
(PID.TID 0000.0001) // =======================================================
(PID.TID 0000.0001) // End OBCS MONITOR field statistics
(PID.TID 0000.0001) // =======================================================
 cg2d: Sum(rhs),rhsMax =   4.51790770250614E+00  2.99896151627568E+02
(PID.TID 0000.0001)      cg2d_init_res =   5.93959793451189E-06
(PID.TID 0000.0001)      cg2d_iters(min,last) =      -1      78
(PID.TID 0000.0001)      cg2d_last_res =   7.53288614506391E-12
(PID.TID 0000.0001) // =======================================================
(PID.TID 0000.0001) // Begin MONITOR dynamic field statistics
(PID.TID 0000.0001) // =======================================================
(PID.TID 0000.0001) %MON time_tsnumber                =                   549
(PID.TID 0000.0001) %MON time_secondsf                =   5.4900000000000E+04
(PID.TID 0000.0001) %MON dynstat_eta_max              =   5.7983069314363E+00
(PID.TID 0000.0001) %MON dynstat_eta_min              =  -1.4199786650265E+01
(PID.TID 0000.0001) %MON dynstat_eta_mean             =  -2.5090798766484E+00
(PID.TID 0000.0001) %MON dynstat_eta_sd               =   4.9516792172662E+00
(PID.TID 0000.0001) %MON dynstat_eta_del2             =   2.0714192571534E-01
(PID.TID 0000.0001) %MON dynstat_uvel_max             =   1.5381412316815E-03
(PID.TID 0000.0001) %MON dynstat_uvel_min             =  -5.7102596467056E-03
(PID.TID 0000.0001) %MON dynstat_uvel_mean            =  -1.1904286664431E-07
(PID.TID 0000.0001) %MON dynstat_uvel_sd              =   2.1662895227385E-04
(PID.TID 0000.0001) %MON dynstat_uvel_del2            =   3.6362533409179E-07
(PID.TID 0000.0001) %MON dynstat_vvel_max             =   5.0635562250774E-03
(PID.TID 0000.0001) %MON dynstat_vvel_min             =  -2.4394903071459E-03
(PID.TID 0000.0001) %MON dynstat_vvel_mean            =   1.4965612978508E-05
(PID.TID 0000.0001) %MON dynstat_vvel_sd              =   1.6705612671135E-04
(PID.TID 0000.0001) %MON dynstat_vvel_del2            =   3.6114200152174E-07
(PID.TID 0000.0001) %MON dynstat_wvel_max             =   1.7616241241273E-04
(PID.TID 0000.0001) %MON dynstat_wvel_min             =  -2.0969063904662E-04
(PID.TID 0000.0001) %MON dynstat_wvel_mean            =   6.6140288330228E-09
(PID.TID 0000.0001) %MON dynstat_wvel_sd              =   1.7785635905325E-05
(PID.TID 0000.0001) %MON dynstat_wvel_del2            =   8.3802547494050E-08
(PID.TID 0000.0001) %MON dynstat_theta_max            =   1.2000000000000E+00
(PID.TID 0000.0001) %MON dynstat_theta_min            =  -1.0000000000000E+00
(PID.TID 0000.0001) %MON dynstat_theta_mean           =   5.6900618230743E-01
(PID.TID 0000.0001) %MON dynstat_theta_sd             =   8.6853266020653E-01
(PID.TID 0000.0001) %MON dynstat_theta_del2           =   1.1513421230658E-06
(PID.TID 0000.0001) %MON dynstat_salt_max             =   3.4700000000000E+01
(PID.TID 0000.0001) %MON dynstat_salt_min             =   3.4000000000000E+01
(PID.TID 0000.0001) %MON dynstat_salt_mean            =   3.4499216610524E+01
(PID.TID 0000.0001) %MON dynstat_salt_sd              =   2.7634765139356E-01
(PID.TID 0000.0001) %MON dynstat_salt_del2            =   4.2502469140501E-07
(PID.TID 0000.0001) %MON advcfl_uvel_max              =   5.7102596467056E-04
(PID.TID 0000.0001) %MON advcfl_vvel_max              =   5.0635562250774E-04
(PID.TID 0000.0001) %MON advcfl_wvel_max              =   1.0484531952331E-03
(PID.TID 0000.0001) %MON advcfl_W_hf_max              =   1.0484531952331E-03
(PID.TID 0000.0001) %MON pe_b_mean                    =  -8.3139798958818E-01
(PID.TID 0000.0001) %MON ke_max                       =   1.0031345781962E-05
(PID.TID 0000.0001) %MON ke_mean                      =   3.7062982372622E-08
(PID.TID 0000.0001) %MON ke_vol                       =   4.2725161453547E+12
(PID.TID 0000.0001) // =======================================================
(PID.TID 0000.0001) // End MONITOR dynamic field statistics
(PID.TID 0000.0001) // =======================================================
(PID.TID 0000.0001) // =======================================================
(PID.TID 0000.0001) // Begin OBCS MONITOR field statistics
(PID.TID 0000.0001) // =======================================================
(PID.TID 0000.0001) %MON obc_N_vVel_max               =   1.4732112402135E-05
(PID.TID 0000.0001) %MON obc_N_vVel_min               =   1.4732112402135E-05
(PID.TID 0000.0001) %MON obc_N_vVel_mean              =   1.4732112402135E-05
(PID.TID 0000.0001) %MON obc_N_vVel_sd                =   3.6165997063533E-12
(PID.TID 0000.0001) %MON obc_N_vVel_Int               =   9.7231941854089E+02
(PID.TID 0000.0001) // =======================================================
(PID.TID 0000.0001) // End OBCS MONITOR field statistics
(PID.TID 0000.0001) // =======================================================
 cg2d: Sum(rhs),rhsMax =   4.51793073994232E+00  2.99896228377255E+02
(PID.TID 0000.0001)      cg2d_init_res =   5.93423248224558E-06
(PID.TID 0000.0001)      cg2d_iters(min,last) =      -1      78
(PID.TID 0000.0001)      cg2d_last_res =   7.55771136137546E-12
(PID.TID 0000.0001) // =======================================================
(PID.TID 0000.0001) // Begin MONITOR dynamic field statistics
(PID.TID 0000.0001) // =======================================================
(PID.TID 0000.0001) %MON time_tsnumber                =                   550
(PID.TID 0000.0001) %MON time_secondsf                =   5.5000000000000E+04
(PID.TID 0000.0001) %MON dynstat_eta_max              =   5.7982834001681E+00
(PID.TID 0000.0001) %MON dynstat_eta_min              =  -1.4199816252033E+01
(PID.TID 0000.0001) %MON dynstat_eta_mean             =  -2.5090933129229E+00
(PID.TID 0000.0001) %MON dynstat_eta_sd               =   4.9516836916711E+00
(PID.TID 0000.0001) %MON dynstat_eta_del2             =   2.0714193571852E-01
(PID.TID 0000.0001) %MON dynstat_uvel_max             =   1.5408430194839E-03
(PID.TID 0000.0001) %MON dynstat_uvel_min             =  -5.7274775365501E-03
(PID.TID 0000.0001) %MON dynstat_uvel_mean            =  -1.1884399647115E-07
(PID.TID 0000.0001) %MON dynstat_uvel_sd              =   2.1698786811933E-04
(PID.TID 0000.0001) %MON dynstat_uvel_del2            =   3.6422931724660E-07
(PID.TID 0000.0001) %MON dynstat_vvel_max             =   5.0765105554902E-03
(PID.TID 0000.0001) %MON dynstat_vvel_min             =  -2.4475231783176E-03
(PID.TID 0000.0001) %MON dynstat_vvel_mean            =   1.4967033409039E-05
(PID.TID 0000.0001) %MON dynstat_vvel_sd              =   1.6728619004937E-04
(PID.TID 0000.0001) %MON dynstat_vvel_del2            =   3.6169031671822E-07
(PID.TID 0000.0001) %MON dynstat_wvel_max             =   1.7692767779709E-04
(PID.TID 0000.0001) %MON dynstat_wvel_min             =  -2.1038071838826E-04
(PID.TID 0000.0001) %MON dynstat_wvel_mean            =   6.6162067128835E-09
(PID.TID 0000.0001) %MON dynstat_wvel_sd              =   1.7873467612174E-05
(PID.TID 0000.0001) %MON dynstat_wvel_del2            =   8.3186249909891E-08
(PID.TID 0000.0001) %MON dynstat_theta_max            =   1.2000000000000E+00
(PID.TID 0000.0001) %MON dynstat_theta_min            =  -1.0000000000000E+00
(PID.TID 0000.0001) %MON dynstat_theta_mean           =   5.6900583694454E-01
(PID.TID 0000.0001) %MON dynstat_theta_sd             =   8.6853247328823E-01
(PID.TID 0000.0001) %MON dynstat_theta_del2           =   1.1516536023161E-06
(PID.TID 0000.0001) %MON dynstat_salt_max             =   3.4700000000000E+01
(PID.TID 0000.0001) %MON dynstat_salt_min             =   3.4000000000000E+01
(PID.TID 0000.0001) %MON dynstat_salt_mean            =   3.4499216472261E+01
(PID.TID 0000.0001) %MON dynstat_salt_sd              =   2.7634758171461E-01
(PID.TID 0000.0001) %MON dynstat_salt_del2            =   4.2535717775453E-07
(PID.TID 0000.0001) %MON advcfl_uvel_max              =   5.7274775365501E-04
(PID.TID 0000.0001) %MON advcfl_vvel_max              =   5.0765105554902E-04
(PID.TID 0000.0001) %MON advcfl_wvel_max              =   1.0519035919413E-03
(PID.TID 0000.0001) %MON advcfl_W_hf_max              =   1.0519035919413E-03
(PID.TID 0000.0001) %MON pe_b_mean                    =  -8.3140182004023E-01
(PID.TID 0000.0001) %MON ke_max                       =   1.0089517825487E-05
(PID.TID 0000.0001) %MON ke_mean                      =   3.7177734360845E-08
(PID.TID 0000.0001) %MON ke_vol                       =   4.2725160655327E+12
(PID.TID 0000.0001) // =======================================================
(PID.TID 0000.0001) // End MONITOR dynamic field statistics
(PID.TID 0000.0001) // =======================================================
(PID.TID 0000.0001) // =======================================================
(PID.TID 0000.0001) // Begin OBCS MONITOR field statistics
(PID.TID 0000.0001) // =======================================================
(PID.TID 0000.0001) %MON obc_N_vVel_max               =   1.4733315012179E-05
(PID.TID 0000.0001) %MON obc_N_vVel_min               =   1.4733315012178E-05
(PID.TID 0000.0001) %MON obc_N_vVel_mean              =   1.4733315012179E-05
(PID.TID 0000.0001) %MON obc_N_vVel_sd                =  -1.6310967703780E-23
(PID.TID 0000.0001) %MON obc_N_vVel_Int               =   9.7239879080380E+02
(PID.TID 0000.0001) // =======================================================
(PID.TID 0000.0001) // End OBCS MONITOR field statistics
(PID.TID 0000.0001) // =======================================================
 cg2d: Sum(rhs),rhsMax =   4.51795377414462E+00  2.99896305130746E+02
(PID.TID 0000.0001)      cg2d_init_res =   5.93377011991190E-06
(PID.TID 0000.0001)      cg2d_iters(min,last) =      -1      78
(PID.TID 0000.0001)      cg2d_last_res =   7.57190595578476E-12
(PID.TID 0000.0001) // =======================================================
(PID.TID 0000.0001) // Begin MONITOR dynamic field statistics
(PID.TID 0000.0001) // =======================================================
(PID.TID 0000.0001) %MON time_tsnumber                =                   551
(PID.TID 0000.0001) %MON time_secondsf                =   5.5100000000000E+04
(PID.TID 0000.0001) %MON dynstat_eta_max              =   5.7982598763156E+00
(PID.TID 0000.0001) %MON dynstat_eta_min              =  -1.4199845849647E+01
(PID.TID 0000.0001) %MON dynstat_eta_mean             =  -2.5091067474398E+00
(PID.TID 0000.0001) %MON dynstat_eta_sd               =   4.9516881657864E+00
(PID.TID 0000.0001) %MON dynstat_eta_del2             =   2.0714194574045E-01
(PID.TID 0000.0001) %MON dynstat_uvel_max             =   1.5435384116209E-03
(PID.TID 0000.0001) %MON dynstat_uvel_min             =  -5.7447349257416E-03
(PID.TID 0000.0001) %MON dynstat_uvel_mean            =  -1.1864197538402E-07
(PID.TID 0000.0001) %MON dynstat_uvel_sd              =   2.1734559899946E-04
(PID.TID 0000.0001) %MON dynstat_uvel_del2            =   3.6483130708821E-07
(PID.TID 0000.0001) %MON dynstat_vvel_max             =   5.0894782315511E-03
(PID.TID 0000.0001) %MON dynstat_vvel_min             =  -2.4555617682323E-03
(PID.TID 0000.0001) %MON dynstat_vvel_mean            =   1.4968437555521E-05
(PID.TID 0000.0001) %MON dynstat_vvel_sd              =   1.6763340021966E-04
(PID.TID 0000.0001) %MON dynstat_vvel_del2            =   3.6277694633324E-07
(PID.TID 0000.0001) %MON dynstat_wvel_max             =   1.7769477585929E-04
(PID.TID 0000.0001) %MON dynstat_wvel_min             =  -2.1107204430303E-04
(PID.TID 0000.0001) %MON dynstat_wvel_mean            =   6.6180837346409E-09
(PID.TID 0000.0001) %MON dynstat_wvel_sd              =   1.8142505200363E-05
(PID.TID 0000.0001) %MON dynstat_wvel_del2            =   8.3229982709549E-08
(PID.TID 0000.0001) %MON dynstat_theta_max            =   1.2000000000000E+00
(PID.TID 0000.0001) %MON dynstat_theta_min            =  -1.0000000000000E+00
(PID.TID 0000.0001) %MON dynstat_theta_mean           =   5.6900549122781E-01
(PID.TID 0000.0001) %MON dynstat_theta_sd             =   8.6853228612488E-01
(PID.TID 0000.0001) %MON dynstat_theta_del2           =   1.1512539120180E-06
(PID.TID 0000.0001) %MON dynstat_salt_max             =   3.4700000000000E+01
(PID.TID 0000.0001) %MON dynstat_salt_min             =   3.4000000000000E+01
(PID.TID 0000.0001) %MON dynstat_salt_mean            =   3.4499216333855E+01
(PID.TID 0000.0001) %MON dynstat_salt_sd              =   2.7634751193815E-01
(PID.TID 0000.0001) %MON dynstat_salt_del2            =   4.2549543682013E-07
(PID.TID 0000.0001) %MON advcfl_uvel_max              =   5.7447349257416E-04
(PID.TID 0000.0001) %MON advcfl_vvel_max              =   5.0894782315511E-04
(PID.TID 0000.0001) %MON advcfl_wvel_max              =   1.0553602215151E-03
(PID.TID 0000.0001) %MON advcfl_W_hf_max              =   1.0553602215151E-03
(PID.TID 0000.0001) %MON pe_b_mean                    =  -8.3140564970897E-01
(PID.TID 0000.0001) %MON ke_max                       =   1.0148005812979E-05
(PID.TID 0000.0001) %MON ke_mean                      =   3.7312041986901E-08
(PID.TID 0000.0001) %MON ke_vol                       =   4.2725159857212E+12
(PID.TID 0000.0001) // =======================================================
(PID.TID 0000.0001) // End MONITOR dynamic field statistics
(PID.TID 0000.0001) // =======================================================
(PID.TID 0000.0001) // =======================================================
(PID.TID 0000.0001) // Begin OBCS MONITOR field statistics
(PID.TID 0000.0001) // =======================================================
(PID.TID 0000.0001) %MON obc_N_vVel_max               =   1.4734523319636E-05
(PID.TID 0000.0001) %MON obc_N_vVel_min               =   1.4734523319635E-05
(PID.TID 0000.0001) %MON obc_N_vVel_mean              =   1.4734523319635E-05
(PID.TID 0000.0001) %MON obc_N_vVel_sd                =   4.4294119422325E-12
(PID.TID 0000.0001) %MON obc_N_vVel_Int               =   9.7247853909593E+02
(PID.TID 0000.0001) // =======================================================
(PID.TID 0000.0001) // End OBCS MONITOR field statistics
(PID.TID 0000.0001) // =======================================================
 cg2d: Sum(rhs),rhsMax =   4.51797680513265E+00  2.99896381882465E+02
(PID.TID 0000.0001)      cg2d_init_res =   5.93825106325528E-06
(PID.TID 0000.0001)      cg2d_iters(min,last) =      -1      78
(PID.TID 0000.0001)      cg2d_last_res =   7.57438306647498E-12
(PID.TID 0000.0001) // =======================================================
(PID.TID 0000.0001) // Begin MONITOR dynamic field statistics
(PID.TID 0000.0001) // =======================================================
(PID.TID 0000.0001) %MON time_tsnumber                =                   552
(PID.TID 0000.0001) %MON time_secondsf                =   5.5200000000000E+04
(PID.TID 0000.0001) %MON dynstat_eta_max              =   5.7982363603725E+00
(PID.TID 0000.0001) %MON dynstat_eta_min              =  -1.4199875443022E+01
(PID.TID 0000.0001) %MON dynstat_eta_mean             =  -2.5091201801633E+00
(PID.TID 0000.0001) %MON dynstat_eta_sd               =   4.9516926395620E+00
(PID.TID 0000.0001) %MON dynstat_eta_del2             =   2.0714195578097E-01
(PID.TID 0000.0001) %MON dynstat_uvel_max             =   1.5462273553926E-03
(PID.TID 0000.0001) %MON dynstat_uvel_min             =  -5.7620319415044E-03
(PID.TID 0000.0001) %MON dynstat_uvel_mean            =  -1.1845790709407E-07
(PID.TID 0000.0001) %MON dynstat_uvel_sd              =   2.1770221818067E-04
(PID.TID 0000.0001) %MON dynstat_uvel_del2            =   3.6543167272543E-07
(PID.TID 0000.0001) %MON dynstat_vvel_max             =   5.1024593343687E-03
(PID.TID 0000.0001) %MON dynstat_vvel_min             =  -2.4636060818883E-03
(PID.TID 0000.0001) %MON dynstat_vvel_mean            =   1.4969781179103E-05
(PID.TID 0000.0001) %MON dynstat_vvel_sd              =   1.6808658877815E-04
(PID.TID 0000.0001) %MON dynstat_vvel_del2            =   3.6436033229279E-07
(PID.TID 0000.0001) %MON dynstat_wvel_max             =   1.7846371017281E-04
(PID.TID 0000.0001) %MON dynstat_wvel_min             =  -2.1176462124342E-04
(PID.TID 0000.0001) %MON dynstat_wvel_mean            =   6.6196170241409E-09
(PID.TID 0000.0001) %MON dynstat_wvel_sd              =   1.8569760907735E-05
(PID.TID 0000.0001) %MON dynstat_wvel_del2            =   8.3930488308960E-08
(PID.TID 0000.0001) %MON dynstat_theta_max            =   1.2000000000000E+00
(PID.TID 0000.0001) %MON dynstat_theta_min            =  -1.0000000000000E+00
(PID.TID 0000.0001) %MON dynstat_theta_mean           =   5.6900514513478E-01
(PID.TID 0000.0001) %MON dynstat_theta_sd             =   8.6853209866388E-01
(PID.TID 0000.0001) %MON dynstat_theta_del2           =   1.1501885954492E-06
(PID.TID 0000.0001) %MON dynstat_salt_max             =   3.4700000000000E+01
(PID.TID 0000.0001) %MON dynstat_salt_min             =   3.4000000000000E+01
(PID.TID 0000.0001) %MON dynstat_salt_mean            =   3.4499216195298E+01
(PID.TID 0000.0001) %MON dynstat_salt_sd              =   2.7634744204746E-01
(PID.TID 0000.0001) %MON dynstat_salt_del2            =   4.2545235330727E-07
(PID.TID 0000.0001) %MON advcfl_uvel_max              =   5.7620319415044E-04
(PID.TID 0000.0001) %MON advcfl_vvel_max              =   5.1024593343687E-04
(PID.TID 0000.0001) %MON advcfl_wvel_max              =   1.0588231062171E-03
(PID.TID 0000.0001) %MON advcfl_W_hf_max              =   1.0588231062171E-03
(PID.TID 0000.0001) %MON pe_b_mean                    =  -8.3140947857638E-01
(PID.TID 0000.0001) %MON ke_max                       =   1.0206811422866E-05
(PID.TID 0000.0001) %MON ke_mean                      =   3.7464163833684E-08
(PID.TID 0000.0001) %MON ke_vol                       =   4.2725159059202E+12
(PID.TID 0000.0001) // =======================================================
(PID.TID 0000.0001) // End MONITOR dynamic field statistics
(PID.TID 0000.0001) // =======================================================
(PID.TID 0000.0001) // =======================================================
(PID.TID 0000.0001) // Begin OBCS MONITOR field statistics
(PID.TID 0000.0001) // =======================================================
(PID.TID 0000.0001) %MON obc_N_vVel_max               =   1.4735698457032E-05
(PID.TID 0000.0001) %MON obc_N_vVel_min               =   1.4735698457031E-05
(PID.TID 0000.0001) %MON obc_N_vVel_mean              =   1.4735698457031E-05
(PID.TID 0000.0001) %MON obc_N_vVel_sd                =  -2.9985297205047E-24
(PID.TID 0000.0001) %MON obc_N_vVel_Int               =   9.7255609816407E+02
(PID.TID 0000.0001) // =======================================================
(PID.TID 0000.0001) // End OBCS MONITOR field statistics
(PID.TID 0000.0001) // =======================================================
 cg2d: Sum(rhs),rhsMax =   4.51799983284766E+00  2.99896458627197E+02
(PID.TID 0000.0001)      cg2d_init_res =   5.94742919147129E-06
(PID.TID 0000.0001)      cg2d_iters(min,last) =      -1      78
(PID.TID 0000.0001)      cg2d_last_res =   7.56892144001701E-12
(PID.TID 0000.0001) // =======================================================
(PID.TID 0000.0001) // Begin MONITOR dynamic field statistics
(PID.TID 0000.0001) // =======================================================
(PID.TID 0000.0001) %MON time_tsnumber                =                   553
(PID.TID 0000.0001) %MON time_secondsf                =   5.5300000000000E+04
(PID.TID 0000.0001) %MON dynstat_eta_max              =   5.7982128527324E+00
(PID.TID 0000.0001) %MON dynstat_eta_min              =  -1.4199905032049E+01
(PID.TID 0000.0001) %MON dynstat_eta_mean             =  -2.5091336110172E+00
(PID.TID 0000.0001) %MON dynstat_eta_sd               =   4.9516971129341E+00
(PID.TID 0000.0001) %MON dynstat_eta_del2             =   2.0714196583985E-01
(PID.TID 0000.0001) %MON dynstat_uvel_max             =   1.5489098164334E-03
(PID.TID 0000.0001) %MON dynstat_uvel_min             =  -5.7793687092413E-03
(PID.TID 0000.0001) %MON dynstat_uvel_mean            =  -1.1830803397520E-07
(PID.TID 0000.0001) %MON dynstat_uvel_sd              =   2.1805782954342E-04
(PID.TID 0000.0001) %MON dynstat_uvel_del2            =   3.6603088760377E-07
(PID.TID 0000.0001) %MON dynstat_vvel_max             =   5.1154539419045E-03
(PID.TID 0000.0001) %MON dynstat_vvel_min             =  -2.4716561229310E-03
(PID.TID 0000.0001) %MON dynstat_vvel_mean            =   1.4971022138143E-05
(PID.TID 0000.0001) %MON dynstat_vvel_sd              =   1.6862948510479E-04
(PID.TID 0000.0001) %MON dynstat_vvel_del2            =   3.6637155323527E-07
(PID.TID 0000.0001) %MON dynstat_wvel_max             =   1.7923448444319E-04
(PID.TID 0000.0001) %MON dynstat_wvel_min             =  -2.1245845400022E-04
(PID.TID 0000.0001) %MON dynstat_wvel_mean            =   6.6207649238511E-09
(PID.TID 0000.0001) %MON dynstat_wvel_sd              =   1.9122141581501E-05
(PID.TID 0000.0001) %MON dynstat_wvel_del2            =   8.5235371886106E-08
(PID.TID 0000.0001) %MON dynstat_theta_max            =   1.2000000000000E+00
(PID.TID 0000.0001) %MON dynstat_theta_min            =  -1.0000000000000E+00
(PID.TID 0000.0001) %MON dynstat_theta_mean           =   5.6900479864193E-01
(PID.TID 0000.0001) %MON dynstat_theta_sd             =   8.6853191089925E-01
(PID.TID 0000.0001) %MON dynstat_theta_del2           =   1.1485382948354E-06
(PID.TID 0000.0001) %MON dynstat_salt_max             =   3.4700000000000E+01
(PID.TID 0000.0001) %MON dynstat_salt_min             =   3.4000000000000E+01
(PID.TID 0000.0001) %MON dynstat_salt_mean            =   3.4499216056584E+01
(PID.TID 0000.0001) %MON dynstat_salt_sd              =   2.7634737204058E-01
(PID.TID 0000.0001) %MON dynstat_salt_del2            =   4.2525041393082E-07
(PID.TID 0000.0001) %MON advcfl_uvel_max              =   5.7793687092413E-04
(PID.TID 0000.0001) %MON advcfl_vvel_max              =   5.1154539419045E-04
(PID.TID 0000.0001) %MON advcfl_wvel_max              =   1.0622922700011E-03
(PID.TID 0000.0001) %MON advcfl_W_hf_max              =   1.0622922700011E-03
(PID.TID 0000.0001) %MON pe_b_mean                    =  -8.3141330661415E-01
(PID.TID 0000.0001) %MON ke_max                       =   1.0265936337708E-05
(PID.TID 0000.0001) %MON ke_mean                      =   3.7631520788360E-08
(PID.TID 0000.0001) %MON ke_vol                       =   4.2725158261298E+12
(PID.TID 0000.0001) // =======================================================
(PID.TID 0000.0001) // End MONITOR dynamic field statistics
(PID.TID 0000.0001) // =======================================================
(PID.TID 0000.0001) // =======================================================
(PID.TID 0000.0001) // Begin OBCS MONITOR field statistics
(PID.TID 0000.0001) // =======================================================
(PID.TID 0000.0001) %MON obc_N_vVel_max               =   1.4736803757905E-05
(PID.TID 0000.0001) %MON obc_N_vVel_min               =   1.4736803757904E-05
(PID.TID 0000.0001) %MON obc_N_vVel_mean              =   1.4736803757904E-05
(PID.TID 0000.0001) %MON obc_N_vVel_sd                =   2.7754494148516E-12
(PID.TID 0000.0001) %MON obc_N_vVel_Int               =   9.7262904802169E+02
(PID.TID 0000.0001) // =======================================================
(PID.TID 0000.0001) // End OBCS MONITOR field statistics
(PID.TID 0000.0001) // =======================================================
 cg2d: Sum(rhs),rhsMax =   4.51802285715694E+00  2.99896535360145E+02
(PID.TID 0000.0001)      cg2d_init_res =   5.96078636795594E-06
(PID.TID 0000.0001)      cg2d_iters(min,last) =      -1      78
(PID.TID 0000.0001)      cg2d_last_res =   7.56102770016079E-12
(PID.TID 0000.0001) // =======================================================
(PID.TID 0000.0001) // Begin MONITOR dynamic field statistics
(PID.TID 0000.0001) // =======================================================
(PID.TID 0000.0001) %MON time_tsnumber                =                   554
(PID.TID 0000.0001) %MON time_secondsf                =   5.5400000000000E+04
(PID.TID 0000.0001) %MON dynstat_eta_max              =   5.7981893537475E+00
(PID.TID 0000.0001) %MON dynstat_eta_min              =  -1.4199934616589E+01
(PID.TID 0000.0001) %MON dynstat_eta_mean             =  -2.5091470398876E+00
(PID.TID 0000.0001) %MON dynstat_eta_sd               =   4.9517015858286E+00
(PID.TID 0000.0001) %MON dynstat_eta_del2             =   2.0714197591683E-01
(PID.TID 0000.0001) %MON dynstat_uvel_max             =   1.5515857828925E-03
(PID.TID 0000.0001) %MON dynstat_uvel_min             =  -5.7967453526562E-03
(PID.TID 0000.0001) %MON dynstat_uvel_mean            =  -1.1820273868323E-07
(PID.TID 0000.0001) %MON dynstat_uvel_sd              =   2.1841256353287E-04
(PID.TID 0000.0001) %MON dynstat_uvel_del2            =   3.6662950587831E-07
(PID.TID 0000.0001) %MON dynstat_vvel_max             =   5.1284621277583E-03
(PID.TID 0000.0001) %MON dynstat_vvel_min             =  -2.4797118924065E-03
(PID.TID 0000.0001) %MON dynstat_vvel_mean            =   1.4972121795588E-05
(PID.TID 0000.0001) %MON dynstat_vvel_sd              =   1.6924164444473E-04
(PID.TID 0000.0001) %MON dynstat_vvel_del2            =   3.6871849817806E-07
(PID.TID 0000.0001) %MON dynstat_wvel_max             =   1.8000710251699E-04
(PID.TID 0000.0001) %MON dynstat_wvel_min             =  -2.1315354774829E-04
(PID.TID 0000.0001) %MON dynstat_wvel_mean            =   6.6214894626983E-09
(PID.TID 0000.0001) %MON dynstat_wvel_sd              =   1.9760860019947E-05
(PID.TID 0000.0001) %MON dynstat_wvel_del2            =   8.7049958850026E-08
(PID.TID 0000.0001) %MON dynstat_theta_max            =   1.2000000000000E+00
(PID.TID 0000.0001) %MON dynstat_theta_min            =  -1.0000000000000E+00
(PID.TID 0000.0001) %MON dynstat_theta_mean           =   5.6900445172497E-01
(PID.TID 0000.0001) %MON dynstat_theta_sd             =   8.6853172283537E-01
(PID.TID 0000.0001) %MON dynstat_theta_del2           =   1.1464158095417E-06
(PID.TID 0000.0001) %MON dynstat_salt_max             =   3.4700000000000E+01
(PID.TID 0000.0001) %MON dynstat_salt_min             =   3.4000000000000E+01
(PID.TID 0000.0001) %MON dynstat_salt_mean            =   3.4499215917705E+01
(PID.TID 0000.0001) %MON dynstat_salt_sd              =   2.7634730191904E-01
(PID.TID 0000.0001) %MON dynstat_salt_del2            =   4.2492093130905E-07
(PID.TID 0000.0001) %MON advcfl_uvel_max              =   5.7967453526562E-04
(PID.TID 0000.0001) %MON advcfl_vvel_max              =   5.1284621277583E-04
(PID.TID 0000.0001) %MON advcfl_wvel_max              =   1.0657677387415E-03
(PID.TID 0000.0001) %MON advcfl_W_hf_max              =   1.0657677387415E-03
(PID.TID 0000.0001) %MON pe_b_mean                    =  -8.3141713378434E-01
(PID.TID 0000.0001) %MON ke_max                       =   1.0325382248631E-05
(PID.TID 0000.0001) %MON ke_mean                      =   3.7810825234191E-08
(PID.TID 0000.0001) %MON ke_vol                       =   4.2725157463506E+12
(PID.TID 0000.0001) // =======================================================
(PID.TID 0000.0001) // End MONITOR dynamic field statistics
(PID.TID 0000.0001) // =======================================================
(PID.TID 0000.0001) // =======================================================
(PID.TID 0000.0001) // Begin OBCS MONITOR field statistics
(PID.TID 0000.0001) // =======================================================
(PID.TID 0000.0001) %MON obc_N_vVel_max               =   1.4737805658119E-05
(PID.TID 0000.0001) %MON obc_N_vVel_min               =   1.4737805658118E-05
(PID.TID 0000.0001) %MON obc_N_vVel_mean              =   1.4737805658118E-05
(PID.TID 0000.0001) %MON obc_N_vVel_sd                =   4.0033266626913E-12
(PID.TID 0000.0001) %MON obc_N_vVel_Int               =   9.7269517343580E+02
(PID.TID 0000.0001) // =======================================================
(PID.TID 0000.0001) // End OBCS MONITOR field statistics
(PID.TID 0000.0001) // =======================================================
 cg2d: Sum(rhs),rhsMax =   4.51804587785824E+00  2.99896612077035E+02
(PID.TID 0000.0001)      cg2d_init_res =   5.97756271585630E-06
(PID.TID 0000.0001)      cg2d_iters(min,last) =      -1      78
(PID.TID 0000.0001)      cg2d_last_res =   7.55385077081925E-12
(PID.TID 0000.0001) // =======================================================
(PID.TID 0000.0001) // Begin MONITOR dynamic field statistics
(PID.TID 0000.0001) // =======================================================
(PID.TID 0000.0001) %MON time_tsnumber                =                   555
(PID.TID 0000.0001) %MON time_secondsf                =   5.5500000000000E+04
(PID.TID 0000.0001) %MON dynstat_eta_max              =   5.7981658637611E+00
(PID.TID 0000.0001) %MON dynstat_eta_min              =  -1.4199964196521E+01
(PID.TID 0000.0001) %MON dynstat_eta_mean             =  -2.5091604666265E+00
(PID.TID 0000.0001) %MON dynstat_eta_sd               =   4.9517060581654E+00
(PID.TID 0000.0001) %MON dynstat_eta_del2             =   2.0714198601180E-01
(PID.TID 0000.0001) %MON dynstat_uvel_max             =   1.5542552680401E-03
(PID.TID 0000.0001) %MON dynstat_uvel_min             =  -5.8141619933805E-03
(PID.TID 0000.0001) %MON dynstat_uvel_mean            =  -1.1814628924268E-07
(PID.TID 0000.0001) %MON dynstat_uvel_sd              =   2.1876657226113E-04
(PID.TID 0000.0001) %MON dynstat_uvel_del2            =   3.6722813547237E-07
(PID.TID 0000.0001) %MON dynstat_vvel_max             =   5.1414839606787E-03
(PID.TID 0000.0001) %MON dynstat_vvel_min             =  -2.4877733875144E-03
(PID.TID 0000.0001) %MON dynstat_vvel_mean            =   1.4973046066058E-05
(PID.TID 0000.0001) %MON dynstat_vvel_sd              =   1.6989958499744E-04
(PID.TID 0000.0001) %MON dynstat_vvel_del2            =   3.7129143953191E-07
(PID.TID 0000.0001) %MON dynstat_wvel_max             =   1.8078156844397E-04
(PID.TID 0000.0001) %MON dynstat_wvel_min             =  -2.1384990832556E-04
(PID.TID 0000.0001) %MON dynstat_wvel_mean            =   6.6217603175440E-09
(PID.TID 0000.0001) %MON dynstat_wvel_sd              =   2.0445493377860E-05
(PID.TID 0000.0001) %MON dynstat_wvel_del2            =   8.9249026515445E-08
(PID.TID 0000.0001) %MON dynstat_theta_max            =   1.2000000000000E+00
(PID.TID 0000.0001) %MON dynstat_theta_min            =  -1.0000000000000E+00
(PID.TID 0000.0001) %MON dynstat_theta_mean           =   5.6900410435910E-01
(PID.TID 0000.0001) %MON dynstat_theta_sd             =   8.6853153444237E-01
(PID.TID 0000.0001) %MON dynstat_theta_del2           =   1.1439643400241E-06
(PID.TID 0000.0001) %MON dynstat_salt_max             =   3.4700000000000E+01
(PID.TID 0000.0001) %MON dynstat_salt_min             =   3.4000000000000E+01
(PID.TID 0000.0001) %MON dynstat_salt_mean            =   3.4499215778652E+01
(PID.TID 0000.0001) %MON dynstat_salt_sd              =   2.7634723167315E-01
(PID.TID 0000.0001) %MON dynstat_salt_del2            =   4.2450334180681E-07
(PID.TID 0000.0001) %MON advcfl_uvel_max              =   5.8141619933805E-04
(PID.TID 0000.0001) %MON advcfl_vvel_max              =   5.1414839606787E-04
(PID.TID 0000.0001) %MON advcfl_wvel_max              =   1.0692495416278E-03
(PID.TID 0000.0001) %MON advcfl_W_hf_max              =   1.0692495416278E-03
(PID.TID 0000.0001) %MON pe_b_mean                    =  -8.3142096004041E-01
(PID.TID 0000.0001) %MON ke_max                       =   1.0385150855379E-05
(PID.TID 0000.0001) %MON ke_mean                      =   3.7998246082597E-08
(PID.TID 0000.0001) %MON ke_vol                       =   4.2725156665831E+12
(PID.TID 0000.0001) // =======================================================
(PID.TID 0000.0001) // End MONITOR dynamic field statistics
(PID.TID 0000.0001) // =======================================================
(PID.TID 0000.0001) // =======================================================
(PID.TID 0000.0001) // Begin OBCS MONITOR field statistics
(PID.TID 0000.0001) // =======================================================
(PID.TID 0000.0001) %MON obc_N_vVel_max               =   1.4738674376846E-05
(PID.TID 0000.0001) %MON obc_N_vVel_min               =   1.4738674376846E-05
(PID.TID 0000.0001) %MON obc_N_vVel_mean              =   1.4738674376846E-05
(PID.TID 0000.0001) %MON obc_N_vVel_sd                =  -6.2297039882900E-24
(PID.TID 0000.0001) %MON obc_N_vVel_Int               =   9.7275250887187E+02
(PID.TID 0000.0001) // =======================================================
(PID.TID 0000.0001) // End OBCS MONITOR field statistics
(PID.TID 0000.0001) // =======================================================
 cg2d: Sum(rhs),rhsMax =   4.51806889468852E+00  2.99896688774189E+02
(PID.TID 0000.0001)      cg2d_init_res =   5.99678607993071E-06
(PID.TID 0000.0001)      cg2d_iters(min,last) =      -1      78
(PID.TID 0000.0001)      cg2d_last_res =   7.54769977508604E-12
(PID.TID 0000.0001) // =======================================================
(PID.TID 0000.0001) // Begin MONITOR dynamic field statistics
(PID.TID 0000.0001) // =======================================================
(PID.TID 0000.0001) %MON time_tsnumber                =                   556
(PID.TID 0000.0001) %MON time_secondsf                =   5.5600000000000E+04
(PID.TID 0000.0001) %MON dynstat_eta_max              =   5.7981423831325E+00
(PID.TID 0000.0001) %MON dynstat_eta_min              =  -1.4199993771757E+01
(PID.TID 0000.0001) %MON dynstat_eta_mean             =  -2.5091738910569E+00
(PID.TID 0000.0001) %MON dynstat_eta_sd               =   4.9517105298588E+00
(PID.TID 0000.0001) %MON dynstat_eta_del2             =   2.0714199612462E-01
(PID.TID 0000.0001) %MON dynstat_uvel_max             =   1.5569183103681E-03
(PID.TID 0000.0001) %MON dynstat_uvel_min             =  -5.8316187516461E-03
(PID.TID 0000.0001) %MON dynstat_uvel_mean            =  -1.1813718176788E-07
(PID.TID 0000.0001) %MON dynstat_uvel_sd              =   2.1912002397482E-04
(PID.TID 0000.0001) %MON dynstat_uvel_del2            =   3.6782740890250E-07
(PID.TID 0000.0001) %MON dynstat_vvel_max             =   5.1545195047868E-03
(PID.TID 0000.0001) %MON dynstat_vvel_min             =  -2.4958406013411E-03
(PID.TID 0000.0001) %MON dynstat_vvel_mean            =   1.4973766313309E-05
(PID.TID 0000.0001) %MON dynstat_vvel_sd              =   1.7057805685488E-04
(PID.TID 0000.0001) %MON dynstat_vvel_del2            =   3.7396948538809E-07
(PID.TID 0000.0001) %MON dynstat_wvel_max             =   1.8155788645284E-04
(PID.TID 0000.0001) %MON dynstat_wvel_min             =  -2.1454754211332E-04
(PID.TID 0000.0001) %MON dynstat_wvel_mean            =   6.6215590648877E-09
(PID.TID 0000.0001) %MON dynstat_wvel_sd              =   2.1137041166260E-05
(PID.TID 0000.0001) %MON dynstat_wvel_del2            =   9.1690183927736E-08
(PID.TID 0000.0001) %MON dynstat_theta_max            =   1.2000000000000E+00
(PID.TID 0000.0001) %MON dynstat_theta_min            =  -1.0000000000000E+00
(PID.TID 0000.0001) %MON dynstat_theta_mean           =   5.6900375651945E-01
(PID.TID 0000.0001) %MON dynstat_theta_sd             =   8.6853134573260E-01
(PID.TID 0000.0001) %MON dynstat_theta_del2           =   1.1413493097753E-06
(PID.TID 0000.0001) %MON dynstat_salt_max             =   3.4700000000000E+01
(PID.TID 0000.0001) %MON dynstat_salt_min             =   3.4000000000000E+01
(PID.TID 0000.0001) %MON dynstat_salt_mean            =   3.4499215639418E+01
(PID.TID 0000.0001) %MON dynstat_salt_sd              =   2.7634716130694E-01
(PID.TID 0000.0001) %MON dynstat_salt_del2            =   4.2404308021378E-07
(PID.TID 0000.0001) %MON advcfl_uvel_max              =   5.8316187516461E-04
(PID.TID 0000.0001) %MON advcfl_vvel_max              =   5.1545195047868E-04
(PID.TID 0000.0001) %MON advcfl_wvel_max              =   1.0727377105666E-03
(PID.TID 0000.0001) %MON advcfl_W_hf_max              =   1.0727377105666E-03
(PID.TID 0000.0001) %MON pe_b_mean                    =  -8.3142478532885E-01
(PID.TID 0000.0001) %MON ke_max                       =   1.0445243870462E-05
(PID.TID 0000.0001) %MON ke_mean                      =   3.8189601623857E-08
(PID.TID 0000.0001) %MON ke_vol                       =   4.2725155868282E+12
(PID.TID 0000.0001) // =======================================================
(PID.TID 0000.0001) // End MONITOR dynamic field statistics
(PID.TID 0000.0001) // =======================================================
(PID.TID 0000.0001) // =======================================================
(PID.TID 0000.0001) // Begin OBCS MONITOR field statistics
(PID.TID 0000.0001) // =======================================================
(PID.TID 0000.0001) %MON obc_N_vVel_max               =   1.4739384471676E-05
(PID.TID 0000.0001) %MON obc_N_vVel_min               =   1.4739384471675E-05
(PID.TID 0000.0001) %MON obc_N_vVel_mean              =   1.4739384471676E-05
(PID.TID 0000.0001) %MON obc_N_vVel_sd                =  -1.6259268915495E-23
(PID.TID 0000.0001) %MON obc_N_vVel_Int               =   9.7279937513060E+02
(PID.TID 0000.0001) // =======================================================
(PID.TID 0000.0001) // End OBCS MONITOR field statistics
(PID.TID 0000.0001) // =======================================================
 cg2d: Sum(rhs),rhsMax =   4.51809190733207E+00  2.99896765448576E+02
(PID.TID 0000.0001)      cg2d_init_res =   6.01733812267338E-06
(PID.TID 0000.0001)      cg2d_iters(min,last) =      -1      78
(PID.TID 0000.0001)      cg2d_last_res =   7.54152065497099E-12
(PID.TID 0000.0001) // =======================================================
(PID.TID 0000.0001) // Begin MONITOR dynamic field statistics
(PID.TID 0000.0001) // =======================================================
(PID.TID 0000.0001) %MON time_tsnumber                =                   557
(PID.TID 0000.0001) %MON time_secondsf                =   5.5700000000000E+04
(PID.TID 0000.0001) %MON dynstat_eta_max              =   5.7981189122745E+00
(PID.TID 0000.0001) %MON dynstat_eta_min              =  -1.4200023342236E+01
(PID.TID 0000.0001) %MON dynstat_eta_mean             =  -2.5091873129783E+00
(PID.TID 0000.0001) %MON dynstat_eta_sd               =   4.9517150008217E+00
(PID.TID 0000.0001) %MON dynstat_eta_del2             =   2.0714200625511E-01
(PID.TID 0000.0001) %MON dynstat_uvel_max             =   1.5595749700106E-03
(PID.TID 0000.0001) %MON dynstat_uvel_min             =  -5.8491157464404E-03
(PID.TID 0000.0001) %MON dynstat_uvel_mean            =  -1.1816904236179E-07
(PID.TID 0000.0001) %MON dynstat_uvel_sd              =   2.1947309715227E-04
(PID.TID 0000.0001) %MON dynstat_uvel_del2            =   3.6842795377408E-07
(PID.TID 0000.0001) %MON dynstat_vvel_max             =   5.1675688201422E-03
(PID.TID 0000.0001) %MON dynstat_vvel_min             =  -2.5039135225313E-03
(PID.TID 0000.0001) %MON dynstat_vvel_mean            =   1.4974260224569E-05
(PID.TID 0000.0001) %MON dynstat_vvel_sd              =   1.7125136264812E-04
(PID.TID 0000.0001) %MON dynstat_vvel_del2            =   3.7662737559565E-07
(PID.TID 0000.0001) %MON dynstat_wvel_max             =   1.8233606094755E-04
(PID.TID 0000.0001) %MON dynstat_wvel_min             =  -2.1524645614579E-04
(PID.TID 0000.0001) %MON dynstat_wvel_mean            =   6.6208824742545E-09
(PID.TID 0000.0001) %MON dynstat_wvel_sd              =   2.1799885460884E-05
(PID.TID 0000.0001) %MON dynstat_wvel_del2            =   9.4226135921344E-08
(PID.TID 0000.0001) %MON dynstat_theta_max            =   1.2000000000000E+00
(PID.TID 0000.0001) %MON dynstat_theta_min            =  -1.0000000000000E+00
(PID.TID 0000.0001) %MON dynstat_theta_mean           =   5.6900340818142E-01
(PID.TID 0000.0001) %MON dynstat_theta_sd             =   8.6853115673594E-01
(PID.TID 0000.0001) %MON dynstat_theta_del2           =   1.1387509594135E-06
(PID.TID 0000.0001) %MON dynstat_salt_max             =   3.4700000000000E+01
(PID.TID 0000.0001) %MON dynstat_salt_min             =   3.4000000000000E+01
(PID.TID 0000.0001) %MON dynstat_salt_mean            =   3.4499215499995E+01
(PID.TID 0000.0001) %MON dynstat_salt_sd              =   2.7634709082989E-01
(PID.TID 0000.0001) %MON dynstat_salt_del2            =   4.2358936731034E-07
(PID.TID 0000.0001) %MON advcfl_uvel_max              =   5.8491157464404E-04
(PID.TID 0000.0001) %MON advcfl_vvel_max              =   5.1675688201422E-04
(PID.TID 0000.0001) %MON advcfl_wvel_max              =   1.0762322807290E-03
(PID.TID 0000.0001) %MON advcfl_W_hf_max              =   1.0762322807290E-03
(PID.TID 0000.0001) %MON pe_b_mean                    =  -8.3142860959060E-01
(PID.TID 0000.0001) %MON ke_max                       =   1.0505663019232E-05
(PID.TID 0000.0001) %MON ke_mean                      =   3.8380570474737E-08
(PID.TID 0000.0001) %MON ke_vol                       =   4.2725155070871E+12
(PID.TID 0000.0001) // =======================================================
(PID.TID 0000.0001) // End MONITOR dynamic field statistics
(PID.TID 0000.0001) // =======================================================
(PID.TID 0000.0001) // =======================================================
(PID.TID 0000.0001) // Begin OBCS MONITOR field statistics
(PID.TID 0000.0001) // =======================================================
(PID.TID 0000.0001) %MON obc_N_vVel_max               =   1.4739915292717E-05
(PID.TID 0000.0001) %MON obc_N_vVel_min               =   1.4739915292716E-05
(PID.TID 0000.0001) %MON obc_N_vVel_mean              =   1.4739915292716E-05
(PID.TID 0000.0001) %MON obc_N_vVel_sd                =  -4.1359030627651E-24
(PID.TID 0000.0001) %MON obc_N_vVel_Int               =   9.7283440931929E+02
(PID.TID 0000.0001) // =======================================================
(PID.TID 0000.0001) // End OBCS MONITOR field statistics
(PID.TID 0000.0001) // =======================================================
 cg2d: Sum(rhs),rhsMax =   4.51811491543211E+00  2.99896842097833E+02
(PID.TID 0000.0001)      cg2d_init_res =   6.03800568701858E-06
(PID.TID 0000.0001)      cg2d_iters(min,last) =      -1      78
(PID.TID 0000.0001)      cg2d_last_res =   7.53443054289486E-12
(PID.TID 0000.0001) // =======================================================
(PID.TID 0000.0001) // Begin MONITOR dynamic field statistics
(PID.TID 0000.0001) // =======================================================
(PID.TID 0000.0001) %MON time_tsnumber                =                   558
(PID.TID 0000.0001) %MON time_secondsf                =   5.5800000000000E+04
(PID.TID 0000.0001) %MON dynstat_eta_max              =   5.7980954516540E+00
(PID.TID 0000.0001) %MON dynstat_eta_min              =  -1.4200052907968E+01
(PID.TID 0000.0001) %MON dynstat_eta_mean             =  -2.5092007321726E+00
(PID.TID 0000.0001) %MON dynstat_eta_sd               =   4.9517194709653E+00
(PID.TID 0000.0001) %MON dynstat_eta_del2             =   2.0714201640303E-01
(PID.TID 0000.0001) %MON dynstat_uvel_max             =   1.5622253233607E-03
(PID.TID 0000.0001) %MON dynstat_uvel_min             =  -5.8666530960698E-03
(PID.TID 0000.0001) %MON dynstat_uvel_mean            =  -1.1823192272843E-07
(PID.TID 0000.0001) %MON dynstat_uvel_sd              =   2.1982597452216E-04
(PID.TID 0000.0001) %MON dynstat_uvel_del2            =   3.6903036416901E-07
(PID.TID 0000.0001) %MON dynstat_vvel_max             =   5.1806319641878E-03
(PID.TID 0000.0001) %MON dynstat_vvel_min             =  -2.5119921357977E-03
(PID.TID 0000.0001) %MON dynstat_vvel_mean            =   1.4974512522232E-05
(PID.TID 0000.0001) %MON dynstat_vvel_sd              =   1.7189465558109E-04
(PID.TID 0000.0001) %MON dynstat_vvel_del2            =   3.7914215680578E-07
(PID.TID 0000.0001) %MON dynstat_wvel_max             =   1.8311609647595E-04
(PID.TID 0000.0001) %MON dynstat_wvel_min             =  -2.1594665803307E-04
(PID.TID 0000.0001) %MON dynstat_wvel_mean            =   6.6197452670118E-09
(PID.TID 0000.0001) %MON dynstat_wvel_sd              =   2.2402869732407E-05
(PID.TID 0000.0001) %MON dynstat_wvel_del2            =   9.6714337072126E-08
(PID.TID 0000.0001) %MON dynstat_theta_max            =   1.2000000000000E+00
(PID.TID 0000.0001) %MON dynstat_theta_min            =  -1.0000000000000E+00
(PID.TID 0000.0001) %MON dynstat_theta_mean           =   5.6900305932118E-01
(PID.TID 0000.0001) %MON dynstat_theta_sd             =   8.6853096749521E-01
(PID.TID 0000.0001) %MON dynstat_theta_del2           =   1.1363549315582E-06
(PID.TID 0000.0001) %MON dynstat_salt_max             =   3.4700000000000E+01
(PID.TID 0000.0001) %MON dynstat_salt_min             =   3.4000000000000E+01
(PID.TID 0000.0001) %MON dynstat_salt_mean            =   3.4499215360375E+01
(PID.TID 0000.0001) %MON dynstat_salt_sd              =   2.7634702025553E-01
(PID.TID 0000.0001) %MON dynstat_salt_del2            =   4.2319255187372E-07
(PID.TID 0000.0001) %MON advcfl_uvel_max              =   5.8666530960698E-04
(PID.TID 0000.0001) %MON advcfl_vvel_max              =   5.1806319641878E-04
(PID.TID 0000.0001) %MON advcfl_wvel_max              =   1.0797332901654E-03
(PID.TID 0000.0001) %MON advcfl_W_hf_max              =   1.0797332901654E-03
(PID.TID 0000.0001) %MON pe_b_mean                    =  -8.3143243276299E-01
(PID.TID 0000.0001) %MON ke_max                       =   1.0566410041142E-05
(PID.TID 0000.0001) %MON ke_mean                      =   3.8566909988115E-08
(PID.TID 0000.0001) %MON ke_vol                       =   4.2725154273609E+12
(PID.TID 0000.0001) // =======================================================
(PID.TID 0000.0001) // End MONITOR dynamic field statistics
(PID.TID 0000.0001) // =======================================================
(PID.TID 0000.0001) // =======================================================
(PID.TID 0000.0001) // Begin OBCS MONITOR field statistics
(PID.TID 0000.0001) // =======================================================
(PID.TID 0000.0001) %MON obc_N_vVel_max               =   1.4740251406622E-05
(PID.TID 0000.0001) %MON obc_N_vVel_min               =   1.4740251406622E-05
(PID.TID 0000.0001) %MON obc_N_vVel_mean              =   1.4740251406622E-05
(PID.TID 0000.0001) %MON obc_N_vVel_sd                =   4.5275346000699E-12
(PID.TID 0000.0001) %MON obc_N_vVel_Int               =   9.7285659283703E+02
(PID.TID 0000.0001) // =======================================================
(PID.TID 0000.0001) // End OBCS MONITOR field statistics
(PID.TID 0000.0001) // =======================================================
 cg2d: Sum(rhs),rhsMax =   4.51813791860086E+00  2.99896918720290E+02
(PID.TID 0000.0001)      cg2d_init_res =   6.05756140016248E-06
(PID.TID 0000.0001)      cg2d_iters(min,last) =      -1      78
(PID.TID 0000.0001)      cg2d_last_res =   7.52644957453395E-12
(PID.TID 0000.0001) // =======================================================
(PID.TID 0000.0001) // Begin MONITOR dynamic field statistics
(PID.TID 0000.0001) // =======================================================
(PID.TID 0000.0001) %MON time_tsnumber                =                   559
(PID.TID 0000.0001) %MON time_secondsf                =   5.5900000000000E+04
(PID.TID 0000.0001) %MON dynstat_eta_max              =   5.7980720018108E+00
(PID.TID 0000.0001) %MON dynstat_eta_min              =  -1.4200082468999E+01
(PID.TID 0000.0001) %MON dynstat_eta_mean             =  -2.5092141484106E+00
(PID.TID 0000.0001) %MON dynstat_eta_sd               =   4.9517239402032E+00
(PID.TID 0000.0001) %MON dynstat_eta_del2             =   2.0714202656807E-01
(PID.TID 0000.0001) %MON dynstat_uvel_max             =   1.5648694566144E-03
(PID.TID 0000.0001) %MON dynstat_uvel_min             =  -5.8842309186353E-03
(PID.TID 0000.0001) %MON dynstat_uvel_mean            =  -1.1831377774727E-07
(PID.TID 0000.0001) %MON dynstat_uvel_sd              =   2.2017883731961E-04
(PID.TID 0000.0001) %MON dynstat_uvel_del2            =   3.6963517331685E-07
(PID.TID 0000.0001) %MON dynstat_vvel_max             =   5.1937089933141E-03
(PID.TID 0000.0001) %MON dynstat_vvel_min             =  -2.5200764229600E-03
(PID.TID 0000.0001) %MON dynstat_vvel_mean            =   1.4974515438534E-05
(PID.TID 0000.0001) %MON dynstat_vvel_sd              =   1.7248514980873E-04
(PID.TID 0000.0001) %MON dynstat_vvel_del2            =   3.8139937770053E-07
(PID.TID 0000.0001) %MON dynstat_wvel_max             =   1.8389799766246E-04
(PID.TID 0000.0001) %MON dynstat_wvel_min             =  -2.1664815581647E-04
(PID.TID 0000.0001) %MON dynstat_wvel_mean            =   6.6181810938008E-09
(PID.TID 0000.0001) %MON dynstat_wvel_sd              =   2.2919793079832E-05
(PID.TID 0000.0001) %MON dynstat_wvel_del2            =   9.9023746351363E-08
(PID.TID 0000.0001) %MON dynstat_theta_max            =   1.2000000000000E+00
(PID.TID 0000.0001) %MON dynstat_theta_min            =  -1.0000000000000E+00
(PID.TID 0000.0001) %MON dynstat_theta_mean           =   5.6900270991597E-01
(PID.TID 0000.0001) %MON dynstat_theta_sd             =   8.6853077806130E-01
(PID.TID 0000.0001) %MON dynstat_theta_del2           =   1.1343420838564E-06
(PID.TID 0000.0001) %MON dynstat_salt_max             =   3.4700000000000E+01
(PID.TID 0000.0001) %MON dynstat_salt_min             =   3.4000000000000E+01
(PID.TID 0000.0001) %MON dynstat_salt_mean            =   3.4499215220552E+01
(PID.TID 0000.0001) %MON dynstat_salt_sd              =   2.7634694960011E-01
(PID.TID 0000.0001) %MON dynstat_salt_del2            =   4.2290174172405E-07
(PID.TID 0000.0001) %MON advcfl_uvel_max              =   5.8842309186353E-04
(PID.TID 0000.0001) %MON advcfl_vvel_max              =   5.1937089933141E-04
(PID.TID 0000.0001) %MON advcfl_wvel_max              =   1.0832407790823E-03
(PID.TID 0000.0001) %MON advcfl_W_hf_max              =   1.0832407790823E-03
(PID.TID 0000.0001) %MON pe_b_mean                    =  -8.3143625478184E-01
(PID.TID 0000.0001) %MON ke_max                       =   1.0627486689543E-05
(PID.TID 0000.0001) %MON ke_mean                      =   3.8744670908015E-08
(PID.TID 0000.0001) %MON ke_vol                       =   4.2725153476509E+12
(PID.TID 0000.0001) // =======================================================
(PID.TID 0000.0001) // End MONITOR dynamic field statistics
(PID.TID 0000.0001) // =======================================================
(PID.TID 0000.0001) // =======================================================
(PID.TID 0000.0001) // Begin OBCS MONITOR field statistics
(PID.TID 0000.0001) // =======================================================
(PID.TID 0000.0001) %MON obc_N_vVel_max               =   1.4740382992721E-05
(PID.TID 0000.0001) %MON obc_N_vVel_min               =   1.4740382992721E-05
(PID.TID 0000.0001) %MON obc_N_vVel_mean              =   1.4740382992721E-05
(PID.TID 0000.0001) %MON obc_N_vVel_sd                =   9.2359623575202E-13
(PID.TID 0000.0001) %MON obc_N_vVel_Int               =   9.7286527751961E+02
(PID.TID 0000.0001) // =======================================================
(PID.TID 0000.0001) // End OBCS MONITOR field statistics
(PID.TID 0000.0001) // =======================================================
 cg2d: Sum(rhs),rhsMax =   4.51816091643750E+00  2.99896995314970E+02
(PID.TID 0000.0001)      cg2d_init_res =   6.07484031655294E-06
(PID.TID 0000.0001)      cg2d_iters(min,last) =      -1      78
(PID.TID 0000.0001)      cg2d_last_res =   7.51891795296895E-12
(PID.TID 0000.0001) // =======================================================
(PID.TID 0000.0001) // Begin MONITOR dynamic field statistics
(PID.TID 0000.0001) // =======================================================
(PID.TID 0000.0001) %MON time_tsnumber                =                   560
(PID.TID 0000.0001) %MON time_secondsf                =   5.6000000000000E+04
(PID.TID 0000.0001) %MON dynstat_eta_max              =   5.7980485633414E+00
(PID.TID 0000.0001) %MON dynstat_eta_min              =  -1.4200112025441E+01
(PID.TID 0000.0001) %MON dynstat_eta_mean             =  -2.5092275614614E+00
(PID.TID 0000.0001) %MON dynstat_eta_sd               =   4.9517284084595E+00
(PID.TID 0000.0001) %MON dynstat_eta_del2             =   2.0714203675034E-01
(PID.TID 0000.0001) %MON dynstat_uvel_max             =   1.5675074593799E-03
(PID.TID 0000.0001) %MON dynstat_uvel_min             =  -5.9018493323810E-03
(PID.TID 0000.0001) %MON dynstat_uvel_mean            =  -1.1840192991034E-07
(PID.TID 0000.0001) %MON dynstat_uvel_sd              =   2.2053185985262E-04
(PID.TID 0000.0001) %MON dynstat_uvel_del2            =   3.7024283350603E-07
(PID.TID 0000.0001) %MON dynstat_vvel_max             =   5.2067999647960E-03
(PID.TID 0000.0001) %MON dynstat_vvel_min             =  -2.5281663637564E-03
(PID.TID 0000.0001) %MON dynstat_vvel_mean            =   1.4974268999077E-05
(PID.TID 0000.0001) %MON dynstat_vvel_sd              =   1.7300318986223E-04
(PID.TID 0000.0001) %MON dynstat_vvel_del2            =   3.8329854815655E-07
(PID.TID 0000.0001) %MON dynstat_wvel_max             =   1.8468176919627E-04
(PID.TID 0000.0001) %MON dynstat_wvel_min             =  -2.1735095783868E-04
(PID.TID 0000.0001) %MON dynstat_wvel_mean            =   6.6162408475201E-09
(PID.TID 0000.0001) %MON dynstat_wvel_sd              =   2.3329572239350E-05
(PID.TID 0000.0001) %MON dynstat_wvel_del2            =   1.0103911354187E-07
(PID.TID 0000.0001) %MON dynstat_theta_max            =   1.2000000000000E+00
(PID.TID 0000.0001) %MON dynstat_theta_min            =  -1.0000000000000E+00
(PID.TID 0000.0001) %MON dynstat_theta_mean           =   5.6900235994488E-01
(PID.TID 0000.0001) %MON dynstat_theta_sd             =   8.6853058847533E-01
(PID.TID 0000.0001) %MON dynstat_theta_del2           =   1.1328787795239E-06
(PID.TID 0000.0001) %MON dynstat_salt_max             =   3.4700000000000E+01
(PID.TID 0000.0001) %MON dynstat_salt_min             =   3.4000000000000E+01
(PID.TID 0000.0001) %MON dynstat_salt_mean            =   3.4499215080517E+01
(PID.TID 0000.0001) %MON dynstat_salt_sd              =   2.7634687887678E-01
(PID.TID 0000.0001) %MON dynstat_salt_del2            =   4.2276165278981E-07
(PID.TID 0000.0001) %MON advcfl_uvel_max              =   5.9018493323810E-04
(PID.TID 0000.0001) %MON advcfl_vvel_max              =   5.2067999647960E-04
(PID.TID 0000.0001) %MON advcfl_wvel_max              =   1.0867547891934E-03
(PID.TID 0000.0001) %MON advcfl_W_hf_max              =   1.0867547891934E-03
(PID.TID 0000.0001) %MON pe_b_mean                    =  -8.3144007558426E-01
(PID.TID 0000.0001) %MON ke_max                       =   1.0688894730415E-05
(PID.TID 0000.0001) %MON ke_mean                      =   3.8910397020846E-08
(PID.TID 0000.0001) %MON ke_vol                       =   4.2725152679584E+12
(PID.TID 0000.0001) // =======================================================
(PID.TID 0000.0001) // End MONITOR dynamic field statistics
(PID.TID 0000.0001) // =======================================================
(PID.TID 0000.0001) // =======================================================
(PID.TID 0000.0001) // Begin OBCS MONITOR field statistics
(PID.TID 0000.0001) // =======================================================
(PID.TID 0000.0001) %MON obc_N_vVel_max               =   1.4740306176558E-05
(PID.TID 0000.0001) %MON obc_N_vVel_min               =   1.4740306176558E-05
(PID.TID 0000.0001) %MON obc_N_vVel_mean              =   1.4740306176558E-05
(PID.TID 0000.0001) %MON obc_N_vVel_sd                =   1.0785280415468E-12
(PID.TID 0000.0001) %MON obc_N_vVel_Int               =   9.7286020765282E+02
(PID.TID 0000.0001) // =======================================================
(PID.TID 0000.0001) // End OBCS MONITOR field statistics
(PID.TID 0000.0001) // =======================================================
 cg2d: Sum(rhs),rhsMax =   4.51818390853272E+00  2.99897071881563E+02
(PID.TID 0000.0001)      cg2d_init_res =   6.08877195480361E-06
(PID.TID 0000.0001)      cg2d_iters(min,last) =      -1      78
(PID.TID 0000.0001)      cg2d_last_res =   7.51390254442919E-12
(PID.TID 0000.0001) // =======================================================
(PID.TID 0000.0001) // Begin MONITOR dynamic field statistics
(PID.TID 0000.0001) // =======================================================
(PID.TID 0000.0001) %MON time_tsnumber                =                   561
(PID.TID 0000.0001) %MON time_secondsf                =   5.6100000000000E+04
(PID.TID 0000.0001) %MON dynstat_eta_max              =   5.7980251368856E+00
(PID.TID 0000.0001) %MON dynstat_eta_min              =  -1.4200141577435E+01
(PID.TID 0000.0001) %MON dynstat_eta_mean             =  -2.5092409710951E+00
(PID.TID 0000.0001) %MON dynstat_eta_sd               =   4.9517328756654E+00
(PID.TID 0000.0001) %MON dynstat_eta_del2             =   2.0714204694984E-01
(PID.TID 0000.0001) %MON dynstat_uvel_max             =   1.5701394183028E-03
(PID.TID 0000.0001) %MON dynstat_uvel_min             =  -5.9195084561914E-03
(PID.TID 0000.0001) %MON dynstat_uvel_mean            =  -1.1848445265941E-07
(PID.TID 0000.0001) %MON dynstat_uvel_sd              =   2.2088520494147E-04
(PID.TID 0000.0001) %MON dynstat_uvel_del2            =   3.7085369662959E-07
(PID.TID 0000.0001) %MON dynstat_vvel_max             =   5.2199049385164E-03
(PID.TID 0000.0001) %MON dynstat_vvel_min             =  -2.5362619372009E-03
(PID.TID 0000.0001) %MON dynstat_vvel_mean            =   1.4973781052765E-05
(PID.TID 0000.0001) %MON dynstat_vvel_sd              =   1.7343313879687E-04
(PID.TID 0000.0001) %MON dynstat_vvel_del2            =   3.8475772269435E-07
(PID.TID 0000.0001) %MON dynstat_wvel_max             =   1.8546741578266E-04
(PID.TID 0000.0001) %MON dynstat_wvel_min             =  -2.1805507258663E-04
(PID.TID 0000.0001) %MON dynstat_wvel_mean            =   6.6139912730461E-09
(PID.TID 0000.0001) %MON dynstat_wvel_sd              =   2.3616245158484E-05
(PID.TID 0000.0001) %MON dynstat_wvel_del2            =   1.0266348453293E-07
(PID.TID 0000.0001) %MON dynstat_theta_max            =   1.2000000000000E+00
(PID.TID 0000.0001) %MON dynstat_theta_min            =  -1.0000000000000E+00
(PID.TID 0000.0001) %MON dynstat_theta_mean           =   5.6900200938868E-01
(PID.TID 0000.0001) %MON dynstat_theta_sd             =   8.6853039876911E-01
(PID.TID 0000.0001) %MON dynstat_theta_del2           =   1.1321062754087E-06
(PID.TID 0000.0001) %MON dynstat_salt_max             =   3.4700000000000E+01
(PID.TID 0000.0001) %MON dynstat_salt_min             =   3.4000000000000E+01
(PID.TID 0000.0001) %MON dynstat_salt_mean            =   3.4499214940266E+01
(PID.TID 0000.0001) %MON dynstat_salt_sd              =   2.7634680809557E-01
(PID.TID 0000.0001) %MON dynstat_salt_del2            =   4.2281014628827E-07
(PID.TID 0000.0001) %MON advcfl_uvel_max              =   5.9195084561914E-04
(PID.TID 0000.0001) %MON advcfl_vvel_max              =   5.2199049385164E-04
(PID.TID 0000.0001) %MON advcfl_wvel_max              =   1.0902753629331E-03
(PID.TID 0000.0001) %MON advcfl_W_hf_max              =   1.0902753629331E-03
(PID.TID 0000.0001) %MON pe_b_mean                    =  -8.3144389510951E-01
(PID.TID 0000.0001) %MON ke_max                       =   1.0750635941800E-05
(PID.TID 0000.0001) %MON ke_mean                      =   3.9061299419687E-08
(PID.TID 0000.0001) %MON ke_vol                       =   4.2725151882849E+12
(PID.TID 0000.0001) // =======================================================
(PID.TID 0000.0001) // End MONITOR dynamic field statistics
(PID.TID 0000.0001) // =======================================================
(PID.TID 0000.0001) // =======================================================
(PID.TID 0000.0001) // Begin OBCS MONITOR field statistics
(PID.TID 0000.0001) // =======================================================
(PID.TID 0000.0001) %MON obc_N_vVel_max               =   1.4740023218662E-05
(PID.TID 0000.0001) %MON obc_N_vVel_min               =   1.4740023218661E-05
(PID.TID 0000.0001) %MON obc_N_vVel_mean              =   1.4740023218661E-05
(PID.TID 0000.0001) %MON obc_N_vVel_sd                =   4.0065538511740E-12
(PID.TID 0000.0001) %MON obc_N_vVel_Int               =   9.7284153243165E+02
(PID.TID 0000.0001) // =======================================================
(PID.TID 0000.0001) // End OBCS MONITOR field statistics
(PID.TID 0000.0001) // =======================================================
 cg2d: Sum(rhs),rhsMax =   4.51820689448717E+00  2.99897148420370E+02
(PID.TID 0000.0001)      cg2d_init_res =   6.09846449813019E-06
(PID.TID 0000.0001)      cg2d_iters(min,last) =      -1      78
(PID.TID 0000.0001)      cg2d_last_res =   7.51318452162398E-12
(PID.TID 0000.0001) // =======================================================
(PID.TID 0000.0001) // Begin MONITOR dynamic field statistics
(PID.TID 0000.0001) // =======================================================
(PID.TID 0000.0001) %MON time_tsnumber                =                   562
(PID.TID 0000.0001) %MON time_secondsf                =   5.6200000000000E+04
(PID.TID 0000.0001) %MON dynstat_eta_max              =   5.7980017231140E+00
(PID.TID 0000.0001) %MON dynstat_eta_min              =  -1.4200171125192E+01
(PID.TID 0000.0001) %MON dynstat_eta_mean             =  -2.5092543770925E+00
(PID.TID 0000.0001) %MON dynstat_eta_sd               =   4.9517373417614E+00
(PID.TID 0000.0001) %MON dynstat_eta_del2             =   2.0714205716653E-01
(PID.TID 0000.0001) %MON dynstat_uvel_max             =   1.5727654109838E-03
(PID.TID 0000.0001) %MON dynstat_uvel_min             =  -5.9372084096205E-03
(PID.TID 0000.0001) %MON dynstat_uvel_mean            =  -1.1855130475680E-07
(PID.TID 0000.0001) %MON dynstat_uvel_sd              =   2.2123902016051E-04
(PID.TID 0000.0001) %MON dynstat_uvel_del2            =   3.7146800248615E-07
(PID.TID 0000.0001) %MON dynstat_vvel_max             =   5.2330239782155E-03
(PID.TID 0000.0001) %MON dynstat_vvel_min             =  -2.5443631226807E-03
(PID.TID 0000.0001) %MON dynstat_vvel_mean            =   1.4973067053049E-05
(PID.TID 0000.0001) %MON dynstat_vvel_sd              =   1.7376405571715E-04
(PID.TID 0000.0001) %MON dynstat_vvel_del2            =   3.8571712763533E-07
(PID.TID 0000.0001) %MON dynstat_wvel_max             =   1.8625494206722E-04
(PID.TID 0000.0001) %MON dynstat_wvel_min             =  -2.1876050849463E-04
(PID.TID 0000.0001) %MON dynstat_wvel_mean            =   6.6115114225609E-09
(PID.TID 0000.0001) %MON dynstat_wvel_sd              =   2.3768920311717E-05
(PID.TID 0000.0001) %MON dynstat_wvel_del2            =   1.0381957174693E-07
(PID.TID 0000.0001) %MON dynstat_theta_max            =   1.2000000000000E+00
(PID.TID 0000.0001) %MON dynstat_theta_min            =  -1.0000000000000E+00
(PID.TID 0000.0001) %MON dynstat_theta_mean           =   5.6900165823048E-01
(PID.TID 0000.0001) %MON dynstat_theta_sd             =   8.6853020897435E-01
(PID.TID 0000.0001) %MON dynstat_theta_del2           =   1.1321322500352E-06
(PID.TID 0000.0001) %MON dynstat_salt_max             =   3.4700000000000E+01
(PID.TID 0000.0001) %MON dynstat_salt_min             =   3.4000000000000E+01
(PID.TID 0000.0001) %MON dynstat_salt_mean            =   3.4499214799793E+01
(PID.TID 0000.0001) %MON dynstat_salt_sd              =   2.7634673726652E-01
(PID.TID 0000.0001) %MON dynstat_salt_del2            =   4.2307591743342E-07
(PID.TID 0000.0001) %MON advcfl_uvel_max              =   5.9372084096205E-04
(PID.TID 0000.0001) %MON advcfl_vvel_max              =   5.2330239782155E-04
(PID.TID 0000.0001) %MON advcfl_wvel_max              =   1.0938025424731E-03
(PID.TID 0000.0001) %MON advcfl_W_hf_max              =   1.0938025424731E-03
(PID.TID 0000.0001) %MON pe_b_mean                    =  -8.3144771330150E-01
(PID.TID 0000.0001) %MON ke_max                       =   1.0812712111435E-05
(PID.TID 0000.0001) %MON ke_mean                      =   3.9195396030646E-08
(PID.TID 0000.0001) %MON ke_vol                       =   4.2725151086317E+12
(PID.TID 0000.0001) // =======================================================
(PID.TID 0000.0001) // End MONITOR dynamic field statistics
(PID.TID 0000.0001) // =======================================================
(PID.TID 0000.0001) // =======================================================
(PID.TID 0000.0001) // Begin OBCS MONITOR field statistics
(PID.TID 0000.0001) // =======================================================
(PID.TID 0000.0001) %MON obc_N_vVel_max               =   1.4739542518802E-05
(PID.TID 0000.0001) %MON obc_N_vVel_min               =   1.4739542518801E-05
(PID.TID 0000.0001) %MON obc_N_vVel_mean              =   1.4739542518802E-05
(PID.TID 0000.0001) %MON obc_N_vVel_sd                =  -1.6388515886207E-23
(PID.TID 0000.0001) %MON obc_N_vVel_Int               =   9.7280980624091E+02
(PID.TID 0000.0001) // =======================================================
(PID.TID 0000.0001) // End OBCS MONITOR field statistics
(PID.TID 0000.0001) // =======================================================
 cg2d: Sum(rhs),rhsMax =   4.51822987391751E+00  2.99897224932260E+02
(PID.TID 0000.0001)      cg2d_init_res =   6.10323703403071E-06
(PID.TID 0000.0001)      cg2d_iters(min,last) =      -1      78
(PID.TID 0000.0001)      cg2d_last_res =   7.51763322687203E-12
(PID.TID 0000.0001) // =======================================================
(PID.TID 0000.0001) // Begin MONITOR dynamic field statistics
(PID.TID 0000.0001) // =======================================================
(PID.TID 0000.0001) %MON time_tsnumber                =                   563
(PID.TID 0000.0001) %MON time_secondsf                =   5.6300000000000E+04
(PID.TID 0000.0001) %MON dynstat_eta_max              =   5.7979783226897E+00
(PID.TID 0000.0001) %MON dynstat_eta_min              =  -1.4200200668939E+01
(PID.TID 0000.0001) %MON dynstat_eta_mean             =  -2.5092677792480E+00
(PID.TID 0000.0001) %MON dynstat_eta_sd               =   4.9517418067008E+00
(PID.TID 0000.0001) %MON dynstat_eta_del2             =   2.0714206740041E-01
(PID.TID 0000.0001) %MON dynstat_uvel_max             =   1.5753855022167E-03
(PID.TID 0000.0001) %MON dynstat_uvel_min             =  -5.9549493131454E-03
(PID.TID 0000.0001) %MON dynstat_uvel_mean            =  -1.1859519123632E-07
(PID.TID 0000.0001) %MON dynstat_uvel_sd              =   2.2159343511758E-04
(PID.TID 0000.0001) %MON dynstat_uvel_del2            =   3.7208587317741E-07
(PID.TID 0000.0001) %MON dynstat_vvel_max             =   5.2461571526150E-03
(PID.TID 0000.0001) %MON dynstat_vvel_min             =  -2.5524699008646E-03
(PID.TID 0000.0001) %MON dynstat_vvel_mean            =   1.4972149604142E-05
(PID.TID 0000.0001) %MON dynstat_vvel_sd              =   1.7399014367343E-04
(PID.TID 0000.0001) %MON dynstat_vvel_del2            =   3.8614180587606E-07
(PID.TID 0000.0001) %MON dynstat_wvel_max             =   1.8704435264837E-04
(PID.TID 0000.0001) %MON dynstat_wvel_min             =  -2.1946727390431E-04
(PID.TID 0000.0001) %MON dynstat_wvel_mean            =   6.6088892771755E-09
(PID.TID 0000.0001) %MON dynstat_wvel_sd              =   2.3781727989183E-05
(PID.TID 0000.0001) %MON dynstat_wvel_del2            =   1.0445048610068E-07
(PID.TID 0000.0001) %MON dynstat_theta_max            =   1.2000000000000E+00
(PID.TID 0000.0001) %MON dynstat_theta_min            =  -1.0000000000000E+00
(PID.TID 0000.0001) %MON dynstat_theta_mean           =   5.6900130645559E-01
(PID.TID 0000.0001) %MON dynstat_theta_sd             =   8.6853001909422E-01
(PID.TID 0000.0001) %MON dynstat_theta_del2           =   1.1330236671019E-06
(PID.TID 0000.0001) %MON dynstat_salt_max             =   3.4700000000000E+01
(PID.TID 0000.0001) %MON dynstat_salt_min             =   3.4000000000000E+01
(PID.TID 0000.0001) %MON dynstat_salt_mean            =   3.4499214659093E+01
(PID.TID 0000.0001) %MON dynstat_salt_sd              =   2.7634666639074E-01
(PID.TID 0000.0001) %MON dynstat_salt_del2            =   4.2357671846704E-07
(PID.TID 0000.0001) %MON advcfl_uvel_max              =   5.9549493131454E-04
(PID.TID 0000.0001) %MON advcfl_vvel_max              =   5.2461571526150E-04
(PID.TID 0000.0001) %MON advcfl_wvel_max              =   1.0973363695216E-03
(PID.TID 0000.0001) %MON advcfl_W_hf_max              =   1.0973363695216E-03
(PID.TID 0000.0001) %MON pe_b_mean                    =  -8.3145153010977E-01
(PID.TID 0000.0001) %MON ke_max                       =   1.0875125035465E-05
(PID.TID 0000.0001) %MON ke_mean                      =   3.9311608985016E-08
(PID.TID 0000.0001) %MON ke_vol                       =   4.2725150290001E+12
(PID.TID 0000.0001) // =======================================================
(PID.TID 0000.0001) // End MONITOR dynamic field statistics
(PID.TID 0000.0001) // =======================================================
(PID.TID 0000.0001) // =======================================================
(PID.TID 0000.0001) // Begin OBCS MONITOR field statistics
(PID.TID 0000.0001) // =======================================================
(PID.TID 0000.0001) %MON obc_N_vVel_max               =   1.4738878496939E-05
(PID.TID 0000.0001) %MON obc_N_vVel_min               =   1.4738878496938E-05
(PID.TID 0000.0001) %MON obc_N_vVel_mean              =   1.4738878496939E-05
(PID.TID 0000.0001) %MON obc_N_vVel_sd                =  -1.6259268915495E-23
(PID.TID 0000.0001) %MON obc_N_vVel_Int               =   9.7276598079795E+02
(PID.TID 0000.0001) // =======================================================
(PID.TID 0000.0001) // End OBCS MONITOR field statistics
(PID.TID 0000.0001) // =======================================================
 cg2d: Sum(rhs),rhsMax =   4.51825284647599E+00  2.99897301418600E+02
(PID.TID 0000.0001)      cg2d_init_res =   6.10266689170388E-06
(PID.TID 0000.0001)      cg2d_iters(min,last) =      -1      78
(PID.TID 0000.0001)      cg2d_last_res =   7.52720699224505E-12
(PID.TID 0000.0001) // =======================================================
(PID.TID 0000.0001) // Begin MONITOR dynamic field statistics
(PID.TID 0000.0001) // =======================================================
(PID.TID 0000.0001) %MON time_tsnumber                =                   564
(PID.TID 0000.0001) %MON time_secondsf                =   5.6400000000000E+04
(PID.TID 0000.0001) %MON dynstat_eta_max              =   5.7979549362320E+00
(PID.TID 0000.0001) %MON dynstat_eta_min              =  -1.4200230208956E+01
(PID.TID 0000.0001) %MON dynstat_eta_mean             =  -2.5092811773797E+00
(PID.TID 0000.0001) %MON dynstat_eta_sd               =   4.9517462704487E+00
(PID.TID 0000.0001) %MON dynstat_eta_del2             =   2.0714207765145E-01
(PID.TID 0000.0001) %MON dynstat_uvel_max             =   1.5779997415875E-03
(PID.TID 0000.0001) %MON dynstat_uvel_min             =  -5.9727312884048E-03
(PID.TID 0000.0001) %MON dynstat_uvel_mean            =  -1.1861203768832E-07
(PID.TID 0000.0001) %MON dynstat_uvel_sd              =   2.2194855984979E-04
(PID.TID 0000.0001) %MON dynstat_uvel_del2            =   3.7270731413134E-07
(PID.TID 0000.0001) %MON dynstat_vvel_max             =   5.2593045357439E-03
(PID.TID 0000.0001) %MON dynstat_vvel_min             =  -2.5605822544197E-03
(PID.TID 0000.0001) %MON dynstat_vvel_mean            =   1.4971057732271E-05
(PID.TID 0000.0001) %MON dynstat_vvel_sd              =   1.7411095618808E-04
(PID.TID 0000.0001) %MON dynstat_vvel_del2            =   3.8602326348302E-07
(PID.TID 0000.0001) %MON dynstat_wvel_max             =   1.8783565203534E-04
(PID.TID 0000.0001) %MON dynstat_wvel_min             =  -2.2017537693428E-04
(PID.TID 0000.0001) %MON dynstat_wvel_mean            =   6.6062173983577E-09
(PID.TID 0000.0001) %MON dynstat_wvel_sd              =   2.3653799831647E-05
(PID.TID 0000.0001) %MON dynstat_wvel_del2            =   1.0452016363229E-07
(PID.TID 0000.0001) %MON dynstat_theta_max            =   1.2000000000000E+00
(PID.TID 0000.0001) %MON dynstat_theta_min            =  -1.0000000000000E+00
(PID.TID 0000.0001) %MON dynstat_theta_mean           =   5.6900095405226E-01
(PID.TID 0000.0001) %MON dynstat_theta_sd             =   8.6852982914042E-01
(PID.TID 0000.0001) %MON dynstat_theta_del2           =   1.1348018862763E-06
(PID.TID 0000.0001) %MON dynstat_salt_max             =   3.4700000000000E+01
(PID.TID 0000.0001) %MON dynstat_salt_min             =   3.4000000000000E+01
(PID.TID 0000.0001) %MON dynstat_salt_mean            =   3.4499214518163E+01
(PID.TID 0000.0001) %MON dynstat_salt_sd              =   2.7634659547189E-01
(PID.TID 0000.0001) %MON dynstat_salt_del2            =   4.2431803936259E-07
(PID.TID 0000.0001) %MON advcfl_uvel_max              =   5.9727312884048E-04
(PID.TID 0000.0001) %MON advcfl_vvel_max              =   5.2593045357439E-04
(PID.TID 0000.0001) %MON advcfl_wvel_max              =   1.1008768846714E-03
(PID.TID 0000.0001) %MON advcfl_W_hf_max              =   1.1008768846714E-03
(PID.TID 0000.0001) %MON pe_b_mean                    =  -8.3145534549186E-01
(PID.TID 0000.0001) %MON ke_max                       =   1.0937876517844E-05
(PID.TID 0000.0001) %MON ke_mean                      =   3.9409814453254E-08
(PID.TID 0000.0001) %MON ke_vol                       =   4.2725149493913E+12
(PID.TID 0000.0001) // =======================================================
(PID.TID 0000.0001) // End MONITOR dynamic field statistics
(PID.TID 0000.0001) // =======================================================
(PID.TID 0000.0001) // =======================================================
(PID.TID 0000.0001) // Begin OBCS MONITOR field statistics
(PID.TID 0000.0001) // =======================================================
(PID.TID 0000.0001) %MON obc_N_vVel_max               =   1.4738051289739E-05
(PID.TID 0000.0001) %MON obc_N_vVel_min               =   1.4738051289739E-05
(PID.TID 0000.0001) %MON obc_N_vVel_mean              =   1.4738051289739E-05
(PID.TID 0000.0001) %MON obc_N_vVel_sd                =  -1.1322034634320E-23
(PID.TID 0000.0001) %MON obc_N_vVel_Int               =   9.7271138512279E+02
(PID.TID 0000.0001) // =======================================================
(PID.TID 0000.0001) // End OBCS MONITOR field statistics
(PID.TID 0000.0001) // =======================================================
 cg2d: Sum(rhs),rhsMax =   4.51827581185987E+00  2.99897377881160E+02
(PID.TID 0000.0001)      cg2d_init_res =   6.09660429910325E-06
(PID.TID 0000.0001)      cg2d_iters(min,last) =      -1      78
(PID.TID 0000.0001)      cg2d_last_res =   7.54115784668180E-12
(PID.TID 0000.0001) // =======================================================
(PID.TID 0000.0001) // Begin MONITOR dynamic field statistics
(PID.TID 0000.0001) // =======================================================
(PID.TID 0000.0001) %MON time_tsnumber                =                   565
(PID.TID 0000.0001) %MON time_secondsf                =   5.6500000000000E+04
(PID.TID 0000.0001) %MON dynstat_eta_max              =   5.7979315642616E+00
(PID.TID 0000.0001) %MON dynstat_eta_min              =  -1.4200259745551E+01
(PID.TID 0000.0001) %MON dynstat_eta_mean             =  -2.5092945713345E+00
(PID.TID 0000.0001) %MON dynstat_eta_sd               =   4.9517507329826E+00
(PID.TID 0000.0001) %MON dynstat_eta_del2             =   2.0714208791965E-01
(PID.TID 0000.0001) %MON dynstat_uvel_max             =   1.5806081630823E-03
(PID.TID 0000.0001) %MON dynstat_uvel_min             =  -5.9905544580321E-03
(PID.TID 0000.0001) %MON dynstat_uvel_mean            =  -1.1860109854276E-07
(PID.TID 0000.0001) %MON dynstat_uvel_sd              =   2.2230448435769E-04
(PID.TID 0000.0001) %MON dynstat_uvel_del2            =   3.7333222144781E-07
(PID.TID 0000.0001) %MON dynstat_vvel_max             =   5.2724662066819E-03
(PID.TID 0000.0001) %MON dynstat_vvel_min             =  -2.5687001683297E-03
(PID.TID 0000.0001) %MON dynstat_vvel_mean            =   1.4969825965820E-05
(PID.TID 0000.0001) %MON dynstat_vvel_sd              =   1.7413135816356E-04
(PID.TID 0000.0001) %MON dynstat_vvel_del2            =   3.8538010579334E-07
(PID.TID 0000.0001) %MON dynstat_wvel_max             =   1.8862884466723E-04
(PID.TID 0000.0001) %MON dynstat_wvel_min             =  -2.2088482539398E-04
(PID.TID 0000.0001) %MON dynstat_wvel_mean            =   6.6035887995823E-09
(PID.TID 0000.0001) %MON dynstat_wvel_sd              =   2.3389287100432E-05
(PID.TID 0000.0001) %MON dynstat_wvel_del2            =   1.0401369996129E-07
(PID.TID 0000.0001) %MON dynstat_theta_max            =   1.2000000000000E+00
(PID.TID 0000.0001) %MON dynstat_theta_min            =  -1.0000000000000E+00
(PID.TID 0000.0001) %MON dynstat_theta_mean           =   5.6900060101170E-01
(PID.TID 0000.0001) %MON dynstat_theta_sd             =   8.6852963911614E-01
(PID.TID 0000.0001) %MON dynstat_theta_del2           =   1.1374410491106E-06
(PID.TID 0000.0001) %MON dynstat_salt_max             =   3.4700000000000E+01
(PID.TID 0000.0001) %MON dynstat_salt_min             =   3.4000000000000E+01
(PID.TID 0000.0001) %MON dynstat_salt_mean            =   3.4499214376999E+01
(PID.TID 0000.0001) %MON dynstat_salt_sd              =   2.7634652451099E-01
(PID.TID 0000.0001) %MON dynstat_salt_del2            =   4.2529273775075E-07
(PID.TID 0000.0001) %MON advcfl_uvel_max              =   5.9905544580321E-04
(PID.TID 0000.0001) %MON advcfl_vvel_max              =   5.2724662066819E-04
(PID.TID 0000.0001) %MON advcfl_wvel_max              =   1.1044241269699E-03
(PID.TID 0000.0001) %MON advcfl_W_hf_max              =   1.1044241269699E-03
(PID.TID 0000.0001) %MON pe_b_mean                    =  -8.3145915941440E-01
(PID.TID 0000.0001) %MON ke_max                       =   1.1000968369346E-05
(PID.TID 0000.0001) %MON ke_mean                      =   3.9490842195207E-08
(PID.TID 0000.0001) %MON ke_vol                       =   4.2725148698064E+12
(PID.TID 0000.0001) // =======================================================
(PID.TID 0000.0001) // End MONITOR dynamic field statistics
(PID.TID 0000.0001) // =======================================================
(PID.TID 0000.0001) // =======================================================
(PID.TID 0000.0001) // Begin OBCS MONITOR field statistics
(PID.TID 0000.0001) // =======================================================
(PID.TID 0000.0001) %MON obc_N_vVel_max               =   1.4737086230502E-05
(PID.TID 0000.0001) %MON obc_N_vVel_min               =   1.4737086230502E-05
(PID.TID 0000.0001) %MON obc_N_vVel_mean              =   1.4737086230502E-05
(PID.TID 0000.0001) %MON obc_N_vVel_sd                =  -1.4734154661101E-24
(PID.TID 0000.0001) %MON obc_N_vVel_Int               =   9.7264769121315E+02
(PID.TID 0000.0001) // =======================================================
(PID.TID 0000.0001) // End OBCS MONITOR field statistics
(PID.TID 0000.0001) // =======================================================
 cg2d: Sum(rhs),rhsMax =   4.51829876981464E+00  2.99897454322024E+02
(PID.TID 0000.0001)      cg2d_init_res =   6.08518693271000E-06
(PID.TID 0000.0001)      cg2d_iters(min,last) =      -1      78
(PID.TID 0000.0001)      cg2d_last_res =   7.55798839482173E-12
(PID.TID 0000.0001) // =======================================================
(PID.TID 0000.0001) // Begin MONITOR dynamic field statistics
(PID.TID 0000.0001) // =======================================================
(PID.TID 0000.0001) %MON time_tsnumber                =                   566
(PID.TID 0000.0001) %MON time_secondsf                =   5.6600000000000E+04
(PID.TID 0000.0001) %MON dynstat_eta_max              =   5.7979082072385E+00
(PID.TID 0000.0001) %MON dynstat_eta_min              =  -1.4200289279059E+01
(PID.TID 0000.0001) %MON dynstat_eta_mean             =  -2.5093079609884E+00
(PID.TID 0000.0001) %MON dynstat_eta_sd               =   4.9517551942945E+00
(PID.TID 0000.0001) %MON dynstat_eta_del2             =   2.0714209820512E-01
(PID.TID 0000.0001) %MON dynstat_uvel_max             =   1.5832107861726E-03
(PID.TID 0000.0001) %MON dynstat_uvel_min             =  -6.0084189456227E-03
(PID.TID 0000.0001) %MON dynstat_uvel_mean            =  -1.1856471948613E-07
(PID.TID 0000.0001) %MON dynstat_uvel_sd              =   2.2266127922484E-04
(PID.TID 0000.0001) %MON dynstat_uvel_del2            =   3.7396039549319E-07
(PID.TID 0000.0001) %MON dynstat_vvel_max             =   5.2856422489560E-03
(PID.TID 0000.0001) %MON dynstat_vvel_min             =  -2.5768236297496E-03
(PID.TID 0000.0001) %MON dynstat_vvel_mean            =   1.4968493212994E-05
(PID.TID 0000.0001) %MON dynstat_vvel_sd              =   1.7406124198623E-04
(PID.TID 0000.0001) %MON dynstat_vvel_del2            =   3.8425762883822E-07
(PID.TID 0000.0001) %MON dynstat_wvel_max             =   1.8942393491486E-04
(PID.TID 0000.0001) %MON dynstat_wvel_min             =  -2.2159562694385E-04
(PID.TID 0000.0001) %MON dynstat_wvel_mean            =   6.6010928094640E-09
(PID.TID 0000.0001) %MON dynstat_wvel_sd              =   2.2997416051595E-05
(PID.TID 0000.0001) %MON dynstat_wvel_del2            =   1.0293770843027E-07
(PID.TID 0000.0001) %MON dynstat_theta_max            =   1.2000000000000E+00
(PID.TID 0000.0001) %MON dynstat_theta_min            =  -1.0000000000000E+00
(PID.TID 0000.0001) %MON dynstat_theta_mean           =   5.6900024732796E-01
(PID.TID 0000.0001) %MON dynstat_theta_sd             =   8.6852944902128E-01
(PID.TID 0000.0001) %MON dynstat_theta_del2           =   1.1408688904024E-06
(PID.TID 0000.0001) %MON dynstat_salt_max             =   3.4700000000000E+01
(PID.TID 0000.0001) %MON dynstat_salt_min             =   3.4000000000000E+01
(PID.TID 0000.0001) %MON dynstat_salt_mean            =   3.4499214235600E+01
(PID.TID 0000.0001) %MON dynstat_salt_sd              =   2.7634645350789E-01
(PID.TID 0000.0001) %MON dynstat_salt_del2            =   4.2648122523990E-07
(PID.TID 0000.0001) %MON advcfl_uvel_max              =   6.0084189456227E-04
(PID.TID 0000.0001) %MON advcfl_vvel_max              =   5.2856422489560E-04
(PID.TID 0000.0001) %MON advcfl_wvel_max              =   1.1079781347193E-03
(PID.TID 0000.0001) %MON advcfl_W_hf_max              =   1.1079781347193E-03
(PID.TID 0000.0001) %MON pe_b_mean                    =  -8.3146297185296E-01
(PID.TID 0000.0001) %MON ke_max                       =   1.1064402407298E-05
(PID.TID 0000.0001) %MON ke_mean                      =   3.9556424567929E-08
(PID.TID 0000.0001) %MON ke_vol                       =   4.2725147902463E+12
(PID.TID 0000.0001) // =======================================================
(PID.TID 0000.0001) // End MONITOR dynamic field statistics
(PID.TID 0000.0001) // =======================================================
(PID.TID 0000.0001) // =======================================================
(PID.TID 0000.0001) // Begin OBCS MONITOR field statistics
(PID.TID 0000.0001) // =======================================================
(PID.TID 0000.0001) %MON obc_N_vVel_max               =   1.4736013111141E-05
(PID.TID 0000.0001) %MON obc_N_vVel_min               =   1.4736013111141E-05
(PID.TID 0000.0001) %MON obc_N_vVel_mean              =   1.4736013111141E-05
(PID.TID 0000.0001) %MON obc_N_vVel_sd                =  -1.6621160433487E-23
(PID.TID 0000.0001) %MON obc_N_vVel_Int               =   9.7257686533531E+02
(PID.TID 0000.0001) // =======================================================
(PID.TID 0000.0001) // End OBCS MONITOR field statistics
(PID.TID 0000.0001) // =======================================================
 cg2d: Sum(rhs),rhsMax =   4.51832172014886E+00  2.99897530743566E+02
(PID.TID 0000.0001)      cg2d_init_res =   6.06884503634414E-06
(PID.TID 0000.0001)      cg2d_iters(min,last) =      -1      78
(PID.TID 0000.0001)      cg2d_last_res =   7.57624073392943E-12
(PID.TID 0000.0001) // =======================================================
(PID.TID 0000.0001) // Begin MONITOR dynamic field statistics
(PID.TID 0000.0001) // =======================================================
(PID.TID 0000.0001) %MON time_tsnumber                =                   567
(PID.TID 0000.0001) %MON time_secondsf                =   5.6700000000000E+04
(PID.TID 0000.0001) %MON dynstat_eta_max              =   5.7978848655006E+00
(PID.TID 0000.0001) %MON dynstat_eta_min              =  -1.4200318809840E+01
(PID.TID 0000.0001) %MON dynstat_eta_mean             =  -2.5093213462549E+00
(PID.TID 0000.0001) %MON dynstat_eta_sd               =   4.9517596543881E+00
(PID.TID 0000.0001) %MON dynstat_eta_del2             =   2.0714210850790E-01
(PID.TID 0000.0001) %MON dynstat_uvel_max             =   1.5858076184720E-03
(PID.TID 0000.0001) %MON dynstat_uvel_min             =  -6.0263248754318E-03
(PID.TID 0000.0001) %MON dynstat_uvel_mean            =  -1.1850782958145E-07
(PID.TID 0000.0001) %MON dynstat_uvel_sd              =   2.2301899722657E-04
(PID.TID 0000.0001) %MON dynstat_uvel_del2            =   3.7459155953436E-07
(PID.TID 0000.0001) %MON dynstat_vvel_max             =   5.2988327493892E-03
(PID.TID 0000.0001) %MON dynstat_vvel_min             =  -2.5849526279274E-03
(PID.TID 0000.0001) %MON dynstat_vvel_mean            =   1.4967101501512E-05
(PID.TID 0000.0001) %MON dynstat_vvel_sd              =   1.7391500705459E-04
(PID.TID 0000.0001) %MON dynstat_vvel_del2            =   3.8272632485187E-07
(PID.TID 0000.0001) %MON dynstat_wvel_max             =   1.9022092708484E-04
(PID.TID 0000.0001) %MON dynstat_wvel_min             =  -2.2230778896110E-04
(PID.TID 0000.0001) %MON dynstat_wvel_mean            =   6.5988122332337E-09
(PID.TID 0000.0001) %MON dynstat_wvel_sd              =   2.2492570246208E-05
(PID.TID 0000.0001) %MON dynstat_wvel_del2            =   1.0132076577269E-07
(PID.TID 0000.0001) %MON dynstat_theta_max            =   1.2000000000000E+00
(PID.TID 0000.0001) %MON dynstat_theta_min            =  -1.0000000000000E+00
(PID.TID 0000.0001) %MON dynstat_theta_mean           =   5.6899989299855E-01
(PID.TID 0000.0001) %MON dynstat_theta_sd             =   8.6852925884535E-01
(PID.TID 0000.0001) %MON dynstat_theta_del2           =   1.1449700760417E-06
(PID.TID 0000.0001) %MON dynstat_salt_max             =   3.4700000000000E+01
(PID.TID 0000.0001) %MON dynstat_salt_min             =   3.4000000000000E+01
(PID.TID 0000.0001) %MON dynstat_salt_mean            =   3.4499214093964E+01
(PID.TID 0000.0001) %MON dynstat_salt_sd              =   2.7634638245939E-01
(PID.TID 0000.0001) %MON dynstat_salt_del2            =   4.2785238059969E-07
(PID.TID 0000.0001) %MON advcfl_uvel_max              =   6.0263248754318E-04
(PID.TID 0000.0001) %MON advcfl_vvel_max              =   5.2988327493892E-04
(PID.TID 0000.0001) %MON advcfl_wvel_max              =   1.1115389448055E-03
(PID.TID 0000.0001) %MON advcfl_W_hf_max              =   1.1115389448055E-03
(PID.TID 0000.0001) %MON pe_b_mean                    =  -8.3146678279383E-01
(PID.TID 0000.0001) %MON ke_max                       =   1.1128180455299E-05
(PID.TID 0000.0001) %MON ke_mean                      =   3.9609097633668E-08
(PID.TID 0000.0001) %MON ke_vol                       =   4.2725147107117E+12
(PID.TID 0000.0001) // =======================================================
(PID.TID 0000.0001) // End MONITOR dynamic field statistics
(PID.TID 0000.0001) // =======================================================
(PID.TID 0000.0001) // =======================================================
(PID.TID 0000.0001) // Begin OBCS MONITOR field statistics
(PID.TID 0000.0001) // =======================================================
(PID.TID 0000.0001) %MON obc_N_vVel_max               =   1.4734865224582E-05
(PID.TID 0000.0001) %MON obc_N_vVel_min               =   1.4734865224582E-05
(PID.TID 0000.0001) %MON obc_N_vVel_mean              =   1.4734865224582E-05
(PID.TID 0000.0001) %MON obc_N_vVel_sd                =  -4.9372342811759E-24
(PID.TID 0000.0001) %MON obc_N_vVel_Int               =   9.7250110482244E+02
(PID.TID 0000.0001) // =======================================================
(PID.TID 0000.0001) // End OBCS MONITOR field statistics
(PID.TID 0000.0001) // =======================================================
 cg2d: Sum(rhs),rhsMax =   4.51834466274425E+00  2.99897607148132E+02
(PID.TID 0000.0001)      cg2d_init_res =   6.04828381738179E-06
(PID.TID 0000.0001)      cg2d_iters(min,last) =      -1      78
(PID.TID 0000.0001)      cg2d_last_res =   7.59464415730229E-12
(PID.TID 0000.0001) // =======================================================
(PID.TID 0000.0001) // Begin MONITOR dynamic field statistics
(PID.TID 0000.0001) // =======================================================
(PID.TID 0000.0001) %MON time_tsnumber                =                   568
(PID.TID 0000.0001) %MON time_secondsf                =   5.6800000000000E+04
(PID.TID 0000.0001) %MON dynstat_eta_max              =   5.7978615392257E+00
(PID.TID 0000.0001) %MON dynstat_eta_min              =  -1.4200348338272E+01
(PID.TID 0000.0001) %MON dynstat_eta_mean             =  -2.5093347270880E+00
(PID.TID 0000.0001) %MON dynstat_eta_sd               =   4.9517641132800E+00
(PID.TID 0000.0001) %MON dynstat_eta_del2             =   2.0714211882791E-01
(PID.TID 0000.0001) %MON dynstat_uvel_max             =   1.5883986662741E-03
(PID.TID 0000.0001) %MON dynstat_uvel_min             =  -6.0442723721463E-03
(PID.TID 0000.0001) %MON dynstat_uvel_mean            =  -1.1843723601998E-07
(PID.TID 0000.0001) %MON dynstat_uvel_sd              =   2.2337767577913E-04
(PID.TID 0000.0001) %MON dynstat_uvel_del2            =   3.7522538270988E-07
(PID.TID 0000.0001) %MON dynstat_vvel_max             =   5.3120377971672E-03
(PID.TID 0000.0001) %MON dynstat_vvel_min             =  -2.5930871535707E-03
(PID.TID 0000.0001) %MON dynstat_vvel_mean            =   1.4965694554674E-05
(PID.TID 0000.0001) %MON dynstat_vvel_sd              =   1.7371081812751E-04
(PID.TID 0000.0001) %MON dynstat_vvel_del2            =   3.8087924309210E-07
(PID.TID 0000.0001) %MON dynstat_wvel_max             =   1.9101982546921E-04
(PID.TID 0000.0001) %MON dynstat_wvel_min             =  -2.2302131871333E-04
(PID.TID 0000.0001) %MON dynstat_wvel_mean            =   6.5968202846858E-09
(PID.TID 0000.0001) %MON dynstat_wvel_sd              =   2.1894373530120E-05
(PID.TID 0000.0001) %MON dynstat_wvel_del2            =   9.9213944556066E-08
(PID.TID 0000.0001) %MON dynstat_theta_max            =   1.2000000000000E+00
(PID.TID 0000.0001) %MON dynstat_theta_min            =  -1.0000000000000E+00
(PID.TID 0000.0001) %MON dynstat_theta_mean           =   5.6899953802448E-01
(PID.TID 0000.0001) %MON dynstat_theta_sd             =   8.6852906857013E-01
(PID.TID 0000.0001) %MON dynstat_theta_del2           =   1.1495932196141E-06
(PID.TID 0000.0001) %MON dynstat_salt_max             =   3.4700000000000E+01
(PID.TID 0000.0001) %MON dynstat_salt_min             =   3.4000000000000E+01
(PID.TID 0000.0001) %MON dynstat_salt_mean            =   3.4499213952093E+01
(PID.TID 0000.0001) %MON dynstat_salt_sd              =   2.7634631135960E-01
(PID.TID 0000.0001) %MON dynstat_salt_del2            =   4.2936540733681E-07
(PID.TID 0000.0001) %MON advcfl_uvel_max              =   6.0442723721463E-04
(PID.TID 0000.0001) %MON advcfl_vvel_max              =   5.3120377971672E-04
(PID.TID 0000.0001) %MON advcfl_wvel_max              =   1.1151065935667E-03
(PID.TID 0000.0001) %MON advcfl_W_hf_max              =   1.1151065935667E-03
(PID.TID 0000.0001) %MON pe_b_mean                    =  -8.3147059223442E-01
(PID.TID 0000.0001) %MON ke_max                       =   1.1192304343405E-05
(PID.TID 0000.0001) %MON ke_mean                      =   3.9652059570385E-08
(PID.TID 0000.0001) %MON ke_vol                       =   4.2725146312032E+12
(PID.TID 0000.0001) // =======================================================
(PID.TID 0000.0001) // End MONITOR dynamic field statistics
(PID.TID 0000.0001) // =======================================================
(PID.TID 0000.0001) // =======================================================
(PID.TID 0000.0001) // Begin OBCS MONITOR field statistics
(PID.TID 0000.0001) // =======================================================
(PID.TID 0000.0001) %MON obc_N_vVel_max               =   1.4733678279837E-05
(PID.TID 0000.0001) %MON obc_N_vVel_min               =   1.4733678279837E-05
(PID.TID 0000.0001) %MON obc_N_vVel_mean              =   1.4733678279837E-05
(PID.TID 0000.0001) %MON obc_N_vVel_sd                =   3.9316583901815E-12
(PID.TID 0000.0001) %MON obc_N_vVel_Int               =   9.7242276646924E+02
(PID.TID 0000.0001) // =======================================================
(PID.TID 0000.0001) // End OBCS MONITOR field statistics
(PID.TID 0000.0001) // =======================================================
 cg2d: Sum(rhs),rhsMax =   4.51836759755569E+00  2.99897683538169E+02
(PID.TID 0000.0001)      cg2d_init_res =   6.02446257102007E-06
(PID.TID 0000.0001)      cg2d_iters(min,last) =      -1      78
(PID.TID 0000.0001)      cg2d_last_res =   7.61233492065626E-12
(PID.TID 0000.0001) // =======================================================
(PID.TID 0000.0001) // Begin MONITOR dynamic field statistics
(PID.TID 0000.0001) // =======================================================
(PID.TID 0000.0001) %MON time_tsnumber                =                   569
(PID.TID 0000.0001) %MON time_secondsf                =   5.6900000000000E+04
(PID.TID 0000.0001) %MON dynstat_eta_max              =   5.7978382284312E+00
(PID.TID 0000.0001) %MON dynstat_eta_min              =  -1.4200377864764E+01
(PID.TID 0000.0001) %MON dynstat_eta_mean             =  -2.5093481034831E+00
(PID.TID 0000.0001) %MON dynstat_eta_sd               =   4.9517685710016E+00
(PID.TID 0000.0001) %MON dynstat_eta_del2             =   2.0714212916515E-01
(PID.TID 0000.0001) %MON dynstat_uvel_max             =   1.5909839241033E-03
(PID.TID 0000.0001) %MON dynstat_uvel_min             =  -6.0622615605910E-03
(PID.TID 0000.0001) %MON dynstat_uvel_mean            =  -1.1836070894666E-07
(PID.TID 0000.0001) %MON dynstat_uvel_sd              =   2.2373734005474E-04
(PID.TID 0000.0001) %MON dynstat_uvel_del2            =   3.7586150572248E-07
(PID.TID 0000.0001) %MON dynstat_vvel_max             =   5.3252574821512E-03
(PID.TID 0000.0001) %MON dynstat_vvel_min             =  -2.6012271984444E-03
(PID.TID 0000.0001) %MON dynstat_vvel_mean            =   1.4964316330782E-05
(PID.TID 0000.0001) %MON dynstat_vvel_sd              =   1.7346966620173E-04
(PID.TID 0000.0001) %MON dynstat_vvel_del2            =   3.7882815145156E-07
(PID.TID 0000.0001) %MON dynstat_wvel_max             =   1.9182063437374E-04
(PID.TID 0000.0001) %MON dynstat_wvel_min             =  -2.2373622340610E-04
(PID.TID 0000.0001) %MON dynstat_wvel_mean            =   6.5951788892672E-09
(PID.TID 0000.0001) %MON dynstat_wvel_sd              =   2.1227719229186E-05
(PID.TID 0000.0001) %MON dynstat_wvel_del2            =   9.6691358527934E-08
(PID.TID 0000.0001) %MON dynstat_theta_max            =   1.2000000000000E+00
(PID.TID 0000.0001) %MON dynstat_theta_min            =  -1.0000000000000E+00
(PID.TID 0000.0001) %MON dynstat_theta_mean           =   5.6899918241025E-01
(PID.TID 0000.0001) %MON dynstat_theta_sd             =   8.6852887821282E-01
(PID.TID 0000.0001) %MON dynstat_theta_del2           =   1.1545601071642E-06
(PID.TID 0000.0001) %MON dynstat_salt_max             =   3.4700000000000E+01
(PID.TID 0000.0001) %MON dynstat_salt_min             =   3.4000000000000E+01
(PID.TID 0000.0001) %MON dynstat_salt_mean            =   3.4499213809988E+01
(PID.TID 0000.0001) %MON dynstat_salt_sd              =   2.7634624021396E-01
(PID.TID 0000.0001) %MON dynstat_salt_del2            =   4.3097215965719E-07
(PID.TID 0000.0001) %MON advcfl_uvel_max              =   6.0622615605910E-04
(PID.TID 0000.0001) %MON advcfl_vvel_max              =   5.3252574821512E-04
(PID.TID 0000.0001) %MON advcfl_wvel_max              =   1.1186811170305E-03
(PID.TID 0000.0001) %MON advcfl_W_hf_max              =   1.1186811170305E-03
(PID.TID 0000.0001) %MON pe_b_mean                    =  -8.3147440018339E-01
(PID.TID 0000.0001) %MON ke_max                       =   1.1256775908314E-05
(PID.TID 0000.0001) %MON ke_mean                      =   3.9688993824149E-08
(PID.TID 0000.0001) %MON ke_vol                       =   4.2725145517211E+12
(PID.TID 0000.0001) // =======================================================
(PID.TID 0000.0001) // End MONITOR dynamic field statistics
(PID.TID 0000.0001) // =======================================================
(PID.TID 0000.0001) // =======================================================
(PID.TID 0000.0001) // Begin OBCS MONITOR field statistics
(PID.TID 0000.0001) // =======================================================
(PID.TID 0000.0001) %MON obc_N_vVel_max               =   1.4732489171508E-05
(PID.TID 0000.0001) %MON obc_N_vVel_min               =   1.4732489171507E-05
(PID.TID 0000.0001) %MON obc_N_vVel_mean              =   1.4732489171507E-05
(PID.TID 0000.0001) %MON obc_N_vVel_sd                =   4.2598444440944E-12
(PID.TID 0000.0001) %MON obc_N_vVel_Int               =   9.7234428531949E+02
(PID.TID 0000.0001) // =======================================================
(PID.TID 0000.0001) // End OBCS MONITOR field statistics
(PID.TID 0000.0001) // =======================================================
 cg2d: Sum(rhs),rhsMax =   4.51839052461002E+00  2.99897759916020E+02
(PID.TID 0000.0001)      cg2d_init_res =   5.99854486612455E-06
(PID.TID 0000.0001)      cg2d_iters(min,last) =      -1      78
(PID.TID 0000.0001)      cg2d_last_res =   7.62896121685281E-12
(PID.TID 0000.0001) // =======================================================
(PID.TID 0000.0001) // Begin MONITOR dynamic field statistics
(PID.TID 0000.0001) // =======================================================
(PID.TID 0000.0001) %MON time_tsnumber                =                   570
(PID.TID 0000.0001) %MON time_secondsf                =   5.7000000000000E+04
(PID.TID 0000.0001) %MON dynstat_eta_max              =   5.7978149329660E+00
(PID.TID 0000.0001) %MON dynstat_eta_min              =  -1.4200407389732E+01
(PID.TID 0000.0001) %MON dynstat_eta_mean             =  -2.5093614754747E+00
(PID.TID 0000.0001) %MON dynstat_eta_sd               =   4.9517730275932E+00
(PID.TID 0000.0001) %MON dynstat_eta_del2             =   2.0714213951957E-01
(PID.TID 0000.0001) %MON dynstat_uvel_max             =   1.5935633894122E-03
(PID.TID 0000.0001) %MON dynstat_uvel_min             =  -6.0802925654322E-03
(PID.TID 0000.0001) %MON dynstat_uvel_mean            =  -1.1828607539103E-07
(PID.TID 0000.0001) %MON dynstat_uvel_sd              =   2.2409800651616E-04
(PID.TID 0000.0001) %MON dynstat_uvel_del2            =   3.7649956754623E-07
(PID.TID 0000.0001) %MON dynstat_vvel_max             =   5.3384918938697E-03
(PID.TID 0000.0001) %MON dynstat_vvel_min             =  -2.6093727547618E-03
(PID.TID 0000.0001) %MON dynstat_vvel_mean            =   1.4963009667322E-05
(PID.TID 0000.0001) %MON dynstat_vvel_sd              =   1.7321426785046E-04
(PID.TID 0000.0001) %MON dynstat_vvel_del2            =   3.7669848859851E-07
(PID.TID 0000.0001) %MON dynstat_wvel_max             =   1.9262335812690E-04
(PID.TID 0000.0001) %MON dynstat_wvel_min             =  -2.2445251022842E-04
(PID.TID 0000.0001) %MON dynstat_wvel_mean            =   6.5939374446362E-09
(PID.TID 0000.0001) %MON dynstat_wvel_sd              =   2.0522648505230E-05
(PID.TID 0000.0001) %MON dynstat_wvel_del2            =   9.3850552303112E-08
(PID.TID 0000.0001) %MON dynstat_theta_max            =   1.2000000000000E+00
(PID.TID 0000.0001) %MON dynstat_theta_min            =  -1.0000000000000E+00
(PID.TID 0000.0001) %MON dynstat_theta_mean           =   5.6899882616365E-01
(PID.TID 0000.0001) %MON dynstat_theta_sd             =   8.6852868778990E-01
(PID.TID 0000.0001) %MON dynstat_theta_del2           =   1.1596751394296E-06
(PID.TID 0000.0001) %MON dynstat_salt_max             =   3.4700000000000E+01
(PID.TID 0000.0001) %MON dynstat_salt_min             =   3.4000000000000E+01
(PID.TID 0000.0001) %MON dynstat_salt_mean            =   3.4499213667651E+01
(PID.TID 0000.0001) %MON dynstat_salt_sd              =   2.7634616902768E-01
(PID.TID 0000.0001) %MON dynstat_salt_del2            =   4.3261969435982E-07
(PID.TID 0000.0001) %MON advcfl_uvel_max              =   6.0802925654322E-04
(PID.TID 0000.0001) %MON advcfl_vvel_max              =   5.3384918938697E-04
(PID.TID 0000.0001) %MON advcfl_wvel_max              =   1.1222625511421E-03
(PID.TID 0000.0001) %MON advcfl_W_hf_max              =   1.1222625511421E-03
(PID.TID 0000.0001) %MON pe_b_mean                    =  -8.3147820665934E-01
(PID.TID 0000.0001) %MON ke_max                       =   1.1321596993843E-05
(PID.TID 0000.0001) %MON ke_mean                      =   3.9723866660849E-08
(PID.TID 0000.0001) %MON ke_vol                       =   4.2725144722653E+12
(PID.TID 0000.0001) // =======================================================
(PID.TID 0000.0001) // End MONITOR dynamic field statistics
(PID.TID 0000.0001) // =======================================================
(PID.TID 0000.0001) // =======================================================
(PID.TID 0000.0001) // Begin OBCS MONITOR field statistics
(PID.TID 0000.0001) // =======================================================
(PID.TID 0000.0001) %MON obc_N_vVel_max               =   1.4731334709651E-05
(PID.TID 0000.0001) %MON obc_N_vVel_min               =   1.4731334709651E-05
(PID.TID 0000.0001) %MON obc_N_vVel_mean              =   1.4731334709651E-05
(PID.TID 0000.0001) %MON obc_N_vVel_sd                =  -1.2924697071141E-23
(PID.TID 0000.0001) %MON obc_N_vVel_Int               =   9.7226809083699E+02
(PID.TID 0000.0001) // =======================================================
(PID.TID 0000.0001) // End OBCS MONITOR field statistics
(PID.TID 0000.0001) // =======================================================
 cg2d: Sum(rhs),rhsMax =   4.51841344400826E+00  2.99897836283887E+02
(PID.TID 0000.0001)      cg2d_init_res =   5.97184837526978E-06
(PID.TID 0000.0001)      cg2d_iters(min,last) =      -1      78
(PID.TID 0000.0001)      cg2d_last_res =   7.64438332867416E-12
(PID.TID 0000.0001) // =======================================================
(PID.TID 0000.0001) // Begin MONITOR dynamic field statistics
(PID.TID 0000.0001) // =======================================================
(PID.TID 0000.0001) %MON time_tsnumber                =                   571
(PID.TID 0000.0001) %MON time_secondsf                =   5.7100000000000E+04
(PID.TID 0000.0001) %MON dynstat_eta_max              =   5.7977916525624E+00
(PID.TID 0000.0001) %MON dynstat_eta_min              =  -1.4200436913610E+01
(PID.TID 0000.0001) %MON dynstat_eta_mean             =  -2.5093748431372E+00
(PID.TID 0000.0001) %MON dynstat_eta_sd               =   4.9517774831074E+00
(PID.TID 0000.0001) %MON dynstat_eta_del2             =   2.0714214989123E-01
(PID.TID 0000.0001) %MON dynstat_uvel_max             =   1.5961370621653E-03
(PID.TID 0000.0001) %MON dynstat_uvel_min             =  -6.0983655106321E-03
(PID.TID 0000.0001) %MON dynstat_uvel_mean            =  -1.1822039232555E-07
(PID.TID 0000.0001) %MON dynstat_uvel_sd              =   2.2445968663249E-04
(PID.TID 0000.0001) %MON dynstat_uvel_del2            =   3.7713923232279E-07
(PID.TID 0000.0001) %MON dynstat_vvel_max             =   5.3517411203314E-03
(PID.TID 0000.0001) %MON dynstat_vvel_min             =  -2.6175238147319E-03
(PID.TID 0000.0001) %MON dynstat_vvel_mean            =   1.4961814910963E-05
(PID.TID 0000.0001) %MON dynstat_vvel_sd              =   1.7296784966393E-04
(PID.TID 0000.0001) %MON dynstat_vvel_del2            =   3.7462315662595E-07
(PID.TID 0000.0001) %MON dynstat_wvel_max             =   1.9342800113618E-04
(PID.TID 0000.0001) %MON dynstat_wvel_min             =  -2.2517018647896E-04
(PID.TID 0000.0001) %MON dynstat_wvel_mean            =   6.5931320576302E-09
(PID.TID 0000.0001) %MON dynstat_wvel_sd              =   1.9813910769215E-05
(PID.TID 0000.0001) %MON dynstat_wvel_del2            =   9.0812367729922E-08
(PID.TID 0000.0001) %MON dynstat_theta_max            =   1.2000000000000E+00
(PID.TID 0000.0001) %MON dynstat_theta_min            =  -1.0000000000000E+00
(PID.TID 0000.0001) %MON dynstat_theta_mean           =   5.6899846929592E-01
(PID.TID 0000.0001) %MON dynstat_theta_sd             =   8.6852849730856E-01
(PID.TID 0000.0001) %MON dynstat_theta_del2           =   1.1647360505418E-06
(PID.TID 0000.0001) %MON dynstat_salt_max             =   3.4700000000000E+01
(PID.TID 0000.0001) %MON dynstat_salt_min             =   3.4000000000000E+01
(PID.TID 0000.0001) %MON dynstat_salt_mean            =   3.4499213525085E+01
(PID.TID 0000.0001) %MON dynstat_salt_sd              =   2.7634609780316E-01
(PID.TID 0000.0001) %MON dynstat_salt_del2            =   4.3425317455002E-07
(PID.TID 0000.0001) %MON advcfl_uvel_max              =   6.0983655106321E-04
(PID.TID 0000.0001) %MON advcfl_vvel_max              =   5.3517411203314E-04
(PID.TID 0000.0001) %MON advcfl_wvel_max              =   1.1258509323948E-03
(PID.TID 0000.0001) %MON advcfl_W_hf_max              =   1.1258509323948E-03
(PID.TID 0000.0001) %MON pe_b_mean                    =  -8.3148201169113E-01
(PID.TID 0000.0001) %MON ke_max                       =   1.1386769449877E-05
(PID.TID 0000.0001) %MON ke_mean                      =   3.9760710011708E-08
(PID.TID 0000.0001) %MON ke_vol                       =   4.2725143928357E+12
(PID.TID 0000.0001) // =======================================================
(PID.TID 0000.0001) // End MONITOR dynamic field statistics
(PID.TID 0000.0001) // =======================================================
(PID.TID 0000.0001) // =======================================================
(PID.TID 0000.0001) // Begin OBCS MONITOR field statistics
(PID.TID 0000.0001) // =======================================================
(PID.TID 0000.0001) %MON obc_N_vVel_max               =   1.4730250361652E-05
(PID.TID 0000.0001) %MON obc_N_vVel_min               =   1.4730250361652E-05
(PID.TID 0000.0001) %MON obc_N_vVel_mean              =   1.4730250361652E-05
(PID.TID 0000.0001) %MON obc_N_vVel_sd                =   3.7499427213494E-12
(PID.TID 0000.0001) %MON obc_N_vVel_Int               =   9.7219652386901E+02
(PID.TID 0000.0001) // =======================================================
(PID.TID 0000.0001) // End OBCS MONITOR field statistics
(PID.TID 0000.0001) // =======================================================
 cg2d: Sum(rhs),rhsMax =   4.51843635591686E+00  2.99897912643726E+02
(PID.TID 0000.0001)      cg2d_init_res =   5.94577291463275E-06
(PID.TID 0000.0001)      cg2d_iters(min,last) =      -1      78
(PID.TID 0000.0001)      cg2d_last_res =   7.65817628598961E-12
(PID.TID 0000.0001) // =======================================================
(PID.TID 0000.0001) // Begin MONITOR dynamic field statistics
(PID.TID 0000.0001) // =======================================================
(PID.TID 0000.0001) %MON time_tsnumber                =                   572
(PID.TID 0000.0001) %MON time_secondsf                =   5.7200000000000E+04
(PID.TID 0000.0001) %MON dynstat_eta_max              =   5.7977683868631E+00
(PID.TID 0000.0001) %MON dynstat_eta_min              =  -1.4200466436840E+01
(PID.TID 0000.0001) %MON dynstat_eta_mean             =  -2.5093882065796E+00
(PID.TID 0000.0001) %MON dynstat_eta_sd               =   4.9517819376022E+00
(PID.TID 0000.0001) %MON dynstat_eta_del2             =   2.0714216028012E-01
(PID.TID 0000.0001) %MON dynstat_uvel_max             =   1.5987049503412E-03
(PID.TID 0000.0001) %MON dynstat_uvel_min             =  -6.1164805193155E-03
(PID.TID 0000.0001) %MON dynstat_uvel_mean            =  -1.1816922872620E-07
(PID.TID 0000.0001) %MON dynstat_uvel_sd              =   2.2482239052828E-04
(PID.TID 0000.0001) %MON dynstat_uvel_del2            =   3.7778021414781E-07
(PID.TID 0000.0001) %MON dynstat_vvel_max             =   5.3650052470626E-03
(PID.TID 0000.0001) %MON dynstat_vvel_min             =  -2.6256803702340E-03
(PID.TID 0000.0001) %MON dynstat_vvel_mean            =   1.4960768608725E-05
(PID.TID 0000.0001) %MON dynstat_vvel_sd              =   1.7275287723400E-04
(PID.TID 0000.0001) %MON dynstat_vvel_del2            =   3.7273532614606E-07
(PID.TID 0000.0001) %MON dynstat_wvel_max             =   1.9423456785971E-04
(PID.TID 0000.0001) %MON dynstat_wvel_min             =  -2.2588925951005E-04
(PID.TID 0000.0001) %MON dynstat_wvel_mean            =   6.5927849814248E-09
(PID.TID 0000.0001) %MON dynstat_wvel_sd              =   1.9139959689046E-05
(PID.TID 0000.0001) %MON dynstat_wvel_del2            =   8.7719653981990E-08
(PID.TID 0000.0001) %MON dynstat_theta_max            =   1.2000000000000E+00
(PID.TID 0000.0001) %MON dynstat_theta_min            =  -1.0000000000000E+00
(PID.TID 0000.0001) %MON dynstat_theta_mean           =   5.6899811182131E-01
(PID.TID 0000.0001) %MON dynstat_theta_sd             =   8.6852830675812E-01
(PID.TID 0000.0001) %MON dynstat_theta_del2           =   1.1695445685766E-06
(PID.TID 0000.0001) %MON dynstat_salt_max             =   3.4700000000000E+01
(PID.TID 0000.0001) %MON dynstat_salt_min             =   3.4000000000000E+01
(PID.TID 0000.0001) %MON dynstat_salt_mean            =   3.4499213382295E+01
(PID.TID 0000.0001) %MON dynstat_salt_sd              =   2.7634602653682E-01
(PID.TID 0000.0001) %MON dynstat_salt_del2            =   4.3581868582646E-07
(PID.TID 0000.0001) %MON advcfl_uvel_max              =   6.1164805193155E-04
(PID.TID 0000.0001) %MON advcfl_vvel_max              =   5.3650052470626E-04
(PID.TID 0000.0001) %MON advcfl_wvel_max              =   1.1294462975502E-03
(PID.TID 0000.0001) %MON advcfl_W_hf_max              =   1.1294462975502E-03
(PID.TID 0000.0001) %MON pe_b_mean                    =  -8.3148581531572E-01
(PID.TID 0000.0001) %MON ke_max                       =   1.1452295132968E-05
(PID.TID 0000.0001) %MON ke_mean                      =   3.9803401493233E-08
(PID.TID 0000.0001) %MON ke_vol                       =   4.2725143134318E+12
(PID.TID 0000.0001) // =======================================================
(PID.TID 0000.0001) // End MONITOR dynamic field statistics
(PID.TID 0000.0001) // =======================================================
(PID.TID 0000.0001) // =======================================================
(PID.TID 0000.0001) // Begin OBCS MONITOR field statistics
(PID.TID 0000.0001) // =======================================================
(PID.TID 0000.0001) %MON obc_N_vVel_max               =   1.4729269092182E-05
(PID.TID 0000.0001) %MON obc_N_vVel_min               =   1.4729269092182E-05
(PID.TID 0000.0001) %MON obc_N_vVel_mean              =   1.4729269092182E-05
(PID.TID 0000.0001) %MON obc_N_vVel_sd                =  -8.2201073372457E-24
(PID.TID 0000.0001) %MON obc_N_vVel_Int               =   9.7213176008403E+02
(PID.TID 0000.0001) // =======================================================
(PID.TID 0000.0001) // End OBCS MONITOR field statistics
(PID.TID 0000.0001) // =======================================================
 cg2d: Sum(rhs),rhsMax =   4.51845926056847E+00  2.99897988997188E+02
(PID.TID 0000.0001)      cg2d_init_res =   5.92172478013036E-06
(PID.TID 0000.0001)      cg2d_iters(min,last) =      -1      78
(PID.TID 0000.0001)      cg2d_last_res =   7.66936681712786E-12
(PID.TID 0000.0001) // =======================================================
(PID.TID 0000.0001) // Begin MONITOR dynamic field statistics
(PID.TID 0000.0001) // =======================================================
(PID.TID 0000.0001) %MON time_tsnumber                =                   573
(PID.TID 0000.0001) %MON time_secondsf                =   5.7300000000000E+04
(PID.TID 0000.0001) %MON dynstat_eta_max              =   5.7977451354001E+00
(PID.TID 0000.0001) %MON dynstat_eta_min              =  -1.4200495959873E+01
(PID.TID 0000.0001) %MON dynstat_eta_mean             =  -2.5094015659448E+00
(PID.TID 0000.0001) %MON dynstat_eta_sd               =   4.9517863911437E+00
(PID.TID 0000.0001) %MON dynstat_eta_del2             =   2.0714217068619E-01
(PID.TID 0000.0001) %MON dynstat_uvel_max             =   1.6012670720054E-03
(PID.TID 0000.0001) %MON dynstat_uvel_min             =  -6.1346377134468E-03
(PID.TID 0000.0001) %MON dynstat_uvel_mean            =  -1.1813623244717E-07
(PID.TID 0000.0001) %MON dynstat_uvel_sd              =   2.2518613036619E-04
(PID.TID 0000.0001) %MON dynstat_uvel_del2            =   3.7842229864075E-07
(PID.TID 0000.0001) %MON dynstat_vvel_max             =   5.3782843566204E-03
(PID.TID 0000.0001) %MON dynstat_vvel_min             =  -2.6338424126058E-03
(PID.TID 0000.0001) %MON dynstat_vvel_mean            =   1.4959902344642E-05
(PID.TID 0000.0001) %MON dynstat_vvel_sd              =   1.7258979861459E-04
(PID.TID 0000.0001) %MON dynstat_vvel_del2            =   3.7116057468755E-07
(PID.TID 0000.0001) %MON dynstat_wvel_max             =   1.9504306286709E-04
(PID.TID 0000.0001) %MON dynstat_wvel_min             =  -2.2660973695005E-04
(PID.TID 0000.0001) %MON dynstat_wvel_mean            =   6.5929047839090E-09
(PID.TID 0000.0001) %MON dynstat_wvel_sd              =   1.8541081371117E-05
(PID.TID 0000.0001) %MON dynstat_wvel_del2            =   8.4733829236279E-08
(PID.TID 0000.0001) %MON dynstat_theta_max            =   1.2000000000000E+00
(PID.TID 0000.0001) %MON dynstat_theta_min            =  -1.0000000000000E+00
(PID.TID 0000.0001) %MON dynstat_theta_mean           =   5.6899775375734E-01
(PID.TID 0000.0001) %MON dynstat_theta_sd             =   8.6852811614127E-01
(PID.TID 0000.0001) %MON dynstat_theta_del2           =   1.1739168693005E-06
(PID.TID 0000.0001) %MON dynstat_salt_max             =   3.4700000000000E+01
(PID.TID 0000.0001) %MON dynstat_salt_min             =   3.4000000000000E+01
(PID.TID 0000.0001) %MON dynstat_salt_mean            =   3.4499213239287E+01
(PID.TID 0000.0001) %MON dynstat_salt_sd              =   2.7634595522947E-01
(PID.TID 0000.0001) %MON dynstat_salt_del2            =   4.3726612817463E-07
(PID.TID 0000.0001) %MON advcfl_uvel_max              =   6.1346377134468E-04
(PID.TID 0000.0001) %MON advcfl_vvel_max              =   5.3782843566204E-04
(PID.TID 0000.0001) %MON advcfl_wvel_max              =   1.1330486847503E-03
(PID.TID 0000.0001) %MON advcfl_W_hf_max              =   1.1330486847503E-03
(PID.TID 0000.0001) %MON pe_b_mean                    =  -8.3148961757819E-01
(PID.TID 0000.0001) %MON ke_max                       =   1.1518175905322E-05
(PID.TID 0000.0001) %MON ke_mean                      =   3.9855453678883E-08
(PID.TID 0000.0001) %MON ke_vol                       =   4.2725142340529E+12
(PID.TID 0000.0001) // =======================================================
(PID.TID 0000.0001) // End MONITOR dynamic field statistics
(PID.TID 0000.0001) // =======================================================
(PID.TID 0000.0001) // =======================================================
(PID.TID 0000.0001) // Begin OBCS MONITOR field statistics
(PID.TID 0000.0001) // =======================================================
(PID.TID 0000.0001) %MON obc_N_vVel_max               =   1.4728420278908E-05
(PID.TID 0000.0001) %MON obc_N_vVel_min               =   1.4728420278908E-05
(PID.TID 0000.0001) %MON obc_N_vVel_mean              =   1.4728420278908E-05
(PID.TID 0000.0001) %MON obc_N_vVel_sd                =  -1.7500039834325E-23
(PID.TID 0000.0001) %MON obc_N_vVel_Int               =   9.7207573840792E+02
(PID.TID 0000.0001) // =======================================================
(PID.TID 0000.0001) // End OBCS MONITOR field statistics
(PID.TID 0000.0001) // =======================================================
 cg2d: Sum(rhs),rhsMax =   4.51848215824389E+00  2.99898065345573E+02
(PID.TID 0000.0001)      cg2d_init_res =   5.90104172428137E-06
(PID.TID 0000.0001)      cg2d_iters(min,last) =      -1      78
(PID.TID 0000.0001)      cg2d_last_res =   7.67595045240925E-12
(PID.TID 0000.0001) // =======================================================
(PID.TID 0000.0001) // Begin MONITOR dynamic field statistics
(PID.TID 0000.0001) // =======================================================
(PID.TID 0000.0001) %MON time_tsnumber                =                   574
(PID.TID 0000.0001) %MON time_secondsf                =   5.7400000000000E+04
(PID.TID 0000.0001) %MON dynstat_eta_max              =   5.7977218976326E+00
(PID.TID 0000.0001) %MON dynstat_eta_min              =  -1.4200525483173E+01
(PID.TID 0000.0001) %MON dynstat_eta_mean             =  -2.5094149213997E+00
(PID.TID 0000.0001) %MON dynstat_eta_sd               =   4.9517908438031E+00
(PID.TID 0000.0001) %MON dynstat_eta_del2             =   2.0714218110947E-01
(PID.TID 0000.0001) %MON dynstat_uvel_max             =   1.6038234562989E-03
(PID.TID 0000.0001) %MON dynstat_uvel_min             =  -6.1528372136532E-03
(PID.TID 0000.0001) %MON dynstat_uvel_mean            =  -1.1812289017019E-07
(PID.TID 0000.0001) %MON dynstat_uvel_sd              =   2.2555092321580E-04
(PID.TID 0000.0001) %MON dynstat_uvel_del2            =   3.7906535953352E-07
(PID.TID 0000.0001) %MON dynstat_vvel_max             =   5.3915785280338E-03
(PID.TID 0000.0001) %MON dynstat_vvel_min             =  -2.6420099328304E-03
(PID.TID 0000.0001) %MON dynstat_vvel_mean            =   1.4959241805798E-05
(PID.TID 0000.0001) %MON dynstat_vvel_sd              =   1.7249587953218E-04
(PID.TID 0000.0001) %MON dynstat_vvel_del2            =   3.7000885331974E-07
(PID.TID 0000.0001) %MON dynstat_wvel_max             =   1.9585349080935E-04
(PID.TID 0000.0001) %MON dynstat_wvel_min             =  -2.2733162644566E-04
(PID.TID 0000.0001) %MON dynstat_wvel_mean            =   6.5934859728080E-09
(PID.TID 0000.0001) %MON dynstat_wvel_sd              =   1.8056405188832E-05
(PID.TID 0000.0001) %MON dynstat_wvel_del2            =   8.2027987542001E-08
(PID.TID 0000.0001) %MON dynstat_theta_max            =   1.2000000000000E+00
(PID.TID 0000.0001) %MON dynstat_theta_min            =  -1.0000000000000E+00
(PID.TID 0000.0001) %MON dynstat_theta_mean           =   5.6899739512395E-01
(PID.TID 0000.0001) %MON dynstat_theta_sd             =   8.6852792545348E-01
(PID.TID 0000.0001) %MON dynstat_theta_del2           =   1.1776923350994E-06
(PID.TID 0000.0001) %MON dynstat_salt_max             =   3.4700000000000E+01
(PID.TID 0000.0001) %MON dynstat_salt_min             =   3.4000000000000E+01
(PID.TID 0000.0001) %MON dynstat_salt_mean            =   3.4499213096067E+01
(PID.TID 0000.0001) %MON dynstat_salt_sd              =   2.7634588387981E-01
(PID.TID 0000.0001) %MON dynstat_salt_del2            =   4.3855166672313E-07
(PID.TID 0000.0001) %MON advcfl_uvel_max              =   6.1528372136532E-04
(PID.TID 0000.0001) %MON advcfl_vvel_max              =   5.3915785280338E-04
(PID.TID 0000.0001) %MON advcfl_wvel_max              =   1.1366581322283E-03
(PID.TID 0000.0001) %MON advcfl_W_hf_max              =   1.1366581322283E-03
(PID.TID 0000.0001) %MON pe_b_mean                    =  -8.3149341852875E-01
(PID.TID 0000.0001) %MON ke_max                       =   1.1584413634531E-05
(PID.TID 0000.0001) %MON ke_mean                      =   3.9919824301055E-08
(PID.TID 0000.0001) %MON ke_vol                       =   4.2725141546983E+12
(PID.TID 0000.0001) // =======================================================
(PID.TID 0000.0001) // End MONITOR dynamic field statistics
(PID.TID 0000.0001) // =======================================================
(PID.TID 0000.0001) // =======================================================
(PID.TID 0000.0001) // Begin OBCS MONITOR field statistics
(PID.TID 0000.0001) // =======================================================
(PID.TID 0000.0001) %MON obc_N_vVel_max               =   1.4727728797780E-05
(PID.TID 0000.0001) %MON obc_N_vVel_min               =   1.4727728797780E-05
(PID.TID 0000.0001) %MON obc_N_vVel_mean              =   1.4727728797780E-05
(PID.TID 0000.0001) %MON obc_N_vVel_sd                =   2.8670729563870E-12
(PID.TID 0000.0001) %MON obc_N_vVel_Int               =   9.7203010065348E+02
(PID.TID 0000.0001) // =======================================================
(PID.TID 0000.0001) // End OBCS MONITOR field statistics
(PID.TID 0000.0001) // =======================================================
 cg2d: Sum(rhs),rhsMax =   4.51850504927586E+00  2.99898141689802E+02
(PID.TID 0000.0001)      cg2d_init_res =   5.88490758569461E-06
(PID.TID 0000.0001)      cg2d_iters(min,last) =      -1      78
(PID.TID 0000.0001)      cg2d_last_res =   7.67511060645029E-12
(PID.TID 0000.0001) // =======================================================
(PID.TID 0000.0001) // Begin MONITOR dynamic field statistics
(PID.TID 0000.0001) // =======================================================
(PID.TID 0000.0001) %MON time_tsnumber                =                   575
(PID.TID 0000.0001) %MON time_secondsf                =   5.7500000000000E+04
(PID.TID 0000.0001) %MON dynstat_eta_max              =   5.7976986728543E+00
(PID.TID 0000.0001) %MON dynstat_eta_min              =  -1.4200555007184E+01
(PID.TID 0000.0001) %MON dynstat_eta_mean             =  -2.5094282731367E+00
(PID.TID 0000.0001) %MON dynstat_eta_sd               =   4.9517952956525E+00
(PID.TID 0000.0001) %MON dynstat_eta_del2             =   2.0714219154989E-01
(PID.TID 0000.0001) %MON dynstat_uvel_max             =   1.6063741433427E-03
(PID.TID 0000.0001) %MON dynstat_uvel_min             =  -6.1710791391318E-03
(PID.TID 0000.0001) %MON dynstat_uvel_mean            =  -1.1812852205154E-07
(PID.TID 0000.0001) %MON dynstat_uvel_sd              =   2.2591679324184E-04
(PID.TID 0000.0001) %MON dynstat_uvel_del2            =   3.7970937004215E-07
(PID.TID 0000.0001) %MON dynstat_vvel_max             =   5.4048878367778E-03
(PID.TID 0000.0001) %MON dynstat_vvel_min             =  -2.6501829214647E-03
(PID.TID 0000.0001) %MON dynstat_vvel_mean            =   1.4958806063384E-05
(PID.TID 0000.0001) %MON dynstat_vvel_sd              =   1.7248420863051E-04
(PID.TID 0000.0001) %MON dynstat_vvel_del2            =   3.6936692161059E-07
(PID.TID 0000.0001) %MON dynstat_wvel_max             =   1.9666585642571E-04
(PID.TID 0000.0001) %MON dynstat_wvel_min             =  -2.2805493585444E-04
(PID.TID 0000.0001) %MON dynstat_wvel_mean            =   6.5945100601458E-09
(PID.TID 0000.0001) %MON dynstat_wvel_sd              =   1.7719824229715E-05
(PID.TID 0000.0001) %MON dynstat_wvel_del2            =   7.9775274992715E-08
(PID.TID 0000.0001) %MON dynstat_theta_max            =   1.2000000000000E+00
(PID.TID 0000.0001) %MON dynstat_theta_min            =  -1.0000000000000E+00
(PID.TID 0000.0001) %MON dynstat_theta_mean           =   5.6899703594416E-01
(PID.TID 0000.0001) %MON dynstat_theta_sd             =   8.6852773467207E-01
(PID.TID 0000.0001) %MON dynstat_theta_del2           =   1.1807419789730E-06
(PID.TID 0000.0001) %MON dynstat_salt_max             =   3.4700000000000E+01
(PID.TID 0000.0001) %MON dynstat_salt_min             =   3.4000000000000E+01
(PID.TID 0000.0001) %MON dynstat_salt_mean            =   3.4499212952642E+01
(PID.TID 0000.0001) %MON dynstat_salt_sd              =   2.7634581248051E-01
(PID.TID 0000.0001) %MON dynstat_salt_del2            =   4.3964012494115E-07
(PID.TID 0000.0001) %MON advcfl_uvel_max              =   6.1710791391318E-04
(PID.TID 0000.0001) %MON advcfl_vvel_max              =   5.4048878367778E-04
(PID.TID 0000.0001) %MON advcfl_wvel_max              =   1.1402746792722E-03
(PID.TID 0000.0001) %MON advcfl_W_hf_max              =   1.1402746792722E-03
(PID.TID 0000.0001) %MON pe_b_mean                    =  -8.3149721822265E-01
(PID.TID 0000.0001) %MON ke_max                       =   1.1651010192489E-05
(PID.TID 0000.0001) %MON ke_mean                      =   3.9998757938530E-08
(PID.TID 0000.0001) %MON ke_vol                       =   4.2725140753669E+12
(PID.TID 0000.0001) // =======================================================
(PID.TID 0000.0001) // End MONITOR dynamic field statistics
(PID.TID 0000.0001) // =======================================================
(PID.TID 0000.0001) // =======================================================
(PID.TID 0000.0001) // Begin OBCS MONITOR field statistics
(PID.TID 0000.0001) // =======================================================
(PID.TID 0000.0001) %MON obc_N_vVel_max               =   1.4727214235239E-05
(PID.TID 0000.0001) %MON obc_N_vVel_min               =   1.4727214235239E-05
(PID.TID 0000.0001) %MON obc_N_vVel_mean              =   1.4727214235239E-05
(PID.TID 0000.0001) %MON obc_N_vVel_sd                =  -1.8740810753155E-23
(PID.TID 0000.0001) %MON obc_N_vVel_Int               =   9.7199613952578E+02
(PID.TID 0000.0001) // =======================================================
(PID.TID 0000.0001) // End OBCS MONITOR field statistics
(PID.TID 0000.0001) // =======================================================
 cg2d: Sum(rhs),rhsMax =   4.51852793402963E+00  2.99898218030395E+02
(PID.TID 0000.0001)      cg2d_init_res =   5.87426458336131E-06
(PID.TID 0000.0001)      cg2d_iters(min,last) =      -1      78
(PID.TID 0000.0001)      cg2d_last_res =   7.66505339144654E-12
(PID.TID 0000.0001) // =======================================================
(PID.TID 0000.0001) // Begin MONITOR dynamic field statistics
(PID.TID 0000.0001) // =======================================================
(PID.TID 0000.0001) %MON time_tsnumber                =                   576
(PID.TID 0000.0001) %MON time_secondsf                =   5.7600000000000E+04
(PID.TID 0000.0001) %MON dynstat_eta_max              =   5.7976754605963E+00
(PID.TID 0000.0001) %MON dynstat_eta_min              =  -1.4200584532371E+01
(PID.TID 0000.0001) %MON dynstat_eta_mean             =  -2.5094416213631E+00
(PID.TID 0000.0001) %MON dynstat_eta_sd               =   4.9517997467640E+00
(PID.TID 0000.0001) %MON dynstat_eta_del2             =   2.0714220200743E-01
(PID.TID 0000.0001) %MON dynstat_uvel_max             =   1.6089191833393E-03
(PID.TID 0000.0001) %MON dynstat_uvel_min             =  -6.1893636077377E-03
(PID.TID 0000.0001) %MON dynstat_uvel_mean            =  -1.1815052718068E-07
(PID.TID 0000.0001) %MON dynstat_uvel_sd              =   2.2628377313257E-04
(PID.TID 0000.0001) %MON dynstat_uvel_del2            =   3.8035440802006E-07
(PID.TID 0000.0001) %MON dynstat_vvel_max             =   5.4182123549413E-03
(PID.TID 0000.0001) %MON dynstat_vvel_min             =  -2.6583613691047E-03
(PID.TID 0000.0001) %MON dynstat_vvel_mean            =   1.4958607012290E-05
(PID.TID 0000.0001) %MON dynstat_vvel_sd              =   1.7256294502359E-04
(PID.TID 0000.0001) %MON dynstat_vvel_del2            =   3.6929197945474E-07
(PID.TID 0000.0001) %MON dynstat_wvel_max             =   1.9748016453906E-04
(PID.TID 0000.0001) %MON dynstat_wvel_min             =  -2.2877967316343E-04
(PID.TID 0000.0001) %MON dynstat_wvel_mean            =   6.5959461472874E-09
(PID.TID 0000.0001) %MON dynstat_wvel_sd              =   1.7555394130554E-05
(PID.TID 0000.0001) %MON dynstat_wvel_del2            =   7.8132146330219E-08
(PID.TID 0000.0001) %MON dynstat_theta_max            =   1.2000000000000E+00
(PID.TID 0000.0001) %MON dynstat_theta_min            =  -1.0000000000000E+00
(PID.TID 0000.0001) %MON dynstat_theta_mean           =   5.6899667624323E-01
(PID.TID 0000.0001) %MON dynstat_theta_sd             =   8.6852754376435E-01
(PID.TID 0000.0001) %MON dynstat_theta_del2           =   1.1829745233994E-06
(PID.TID 0000.0001) %MON dynstat_salt_max             =   3.4700000000000E+01
(PID.TID 0000.0001) %MON dynstat_salt_min             =   3.4000000000000E+01
(PID.TID 0000.0001) %MON dynstat_salt_mean            =   3.4499212809020E+01
(PID.TID 0000.0001) %MON dynstat_salt_sd              =   2.7634574102118E-01
(PID.TID 0000.0001) %MON dynstat_salt_del2            =   4.4050666502595E-07
(PID.TID 0000.0001) %MON advcfl_uvel_max              =   6.1893636077377E-04
(PID.TID 0000.0001) %MON advcfl_vvel_max              =   5.4182123549413E-04
(PID.TID 0000.0001) %MON advcfl_wvel_max              =   1.1438983658172E-03
(PID.TID 0000.0001) %MON advcfl_W_hf_max              =   1.1438983658172E-03
(PID.TID 0000.0001) %MON pe_b_mean                    =  -8.3150101671751E-01
(PID.TID 0000.0001) %MON ke_max                       =   1.1717967455358E-05
(PID.TID 0000.0001) %MON ke_mean                      =   4.0093668100447E-08
(PID.TID 0000.0001) %MON ke_vol                       =   4.2725139960576E+12
(PID.TID 0000.0001) // =======================================================
(PID.TID 0000.0001) // End MONITOR dynamic field statistics
(PID.TID 0000.0001) // =======================================================
(PID.TID 0000.0001) // =======================================================
(PID.TID 0000.0001) // Begin OBCS MONITOR field statistics
(PID.TID 0000.0001) // =======================================================
(PID.TID 0000.0001) %MON obc_N_vVel_max               =   1.4726890372797E-05
(PID.TID 0000.0001) %MON obc_N_vVel_min               =   1.4726890372797E-05
(PID.TID 0000.0001) %MON obc_N_vVel_mean              =   1.4726890372797E-05
(PID.TID 0000.0001) %MON obc_N_vVel_sd                =   3.5151117194210E-12
(PID.TID 0000.0001) %MON obc_N_vVel_Int               =   9.7197476460459E+02
(PID.TID 0000.0001) // =======================================================
(PID.TID 0000.0001) // End OBCS MONITOR field statistics
(PID.TID 0000.0001) // =======================================================
 cg2d: Sum(rhs),rhsMax =   4.50642549024670E+00  2.99898294367461E+02
(PID.TID 0000.0001)      cg2d_init_res =   5.28033794194820E-05
(PID.TID 0000.0001)      cg2d_iters(min,last) =      -1      84
(PID.TID 0000.0001)      cg2d_last_res =   9.21744798366815E-12
(PID.TID 0000.0001) // =======================================================
(PID.TID 0000.0001) // Begin MONITOR dynamic field statistics
(PID.TID 0000.0001) // =======================================================
(PID.TID 0000.0001) %MON time_tsnumber                =                   577
(PID.TID 0000.0001) %MON time_secondsf                =   5.7700000000000E+04
(PID.TID 0000.0001) %MON dynstat_eta_max              =   5.7993256409892E+00
(PID.TID 0000.0001) %MON dynstat_eta_min              =  -1.4189205272445E+01
(PID.TID 0000.0001) %MON dynstat_eta_mean             =  -2.5027209596649E+00
(PID.TID 0000.0001) %MON dynstat_eta_sd               =   4.9494992241259E+00
(PID.TID 0000.0001) %MON dynstat_eta_del2             =   2.0714201319927E-01
(PID.TID 0000.0001) %MON dynstat_uvel_max             =   1.6114584451579E-03
(PID.TID 0000.0001) %MON dynstat_uvel_min             =  -6.2076907180275E-03
(PID.TID 0000.0001) %MON dynstat_uvel_mean            =  -1.1808577323298E-07
(PID.TID 0000.0001) %MON dynstat_uvel_sd              =   2.2664939790975E-04
(PID.TID 0000.0001) %MON dynstat_uvel_del2            =   3.8100561639629E-07
(PID.TID 0000.0001) %MON dynstat_vvel_max             =   5.4315270237169E-03
(PID.TID 0000.0001) %MON dynstat_vvel_min             =  -2.6665453623451E-03
(PID.TID 0000.0001) %MON dynstat_vvel_mean            =   1.4961530594506E-05
(PID.TID 0000.0001) %MON dynstat_vvel_sd              =   1.7273031649701E-04
(PID.TID 0000.0001) %MON dynstat_vvel_del2            =   3.6976283665357E-07
(PID.TID 0000.0001) %MON dynstat_wvel_max             =   1.9829691526696E-04
(PID.TID 0000.0001) %MON dynstat_wvel_min             =  -2.2950583601877E-04
(PID.TID 0000.0001) %MON dynstat_wvel_mean            =   6.7014681298334E-09
(PID.TID 0000.0001) %MON dynstat_wvel_sd              =   1.7573598794131E-05
(PID.TID 0000.0001) %MON dynstat_wvel_del2            =   7.7219949977762E-08
(PID.TID 0000.0001) %MON dynstat_theta_max            =   1.2000000000000E+00
(PID.TID 0000.0001) %MON dynstat_theta_min            =  -1.0000000000000E+00
(PID.TID 0000.0001) %MON dynstat_theta_mean           =   5.6899631610167E-01
(PID.TID 0000.0001) %MON dynstat_theta_sd             =   8.6852733838748E-01
(PID.TID 0000.0001) %MON dynstat_theta_del2           =   1.3040745085689E-06
(PID.TID 0000.0001) %MON dynstat_salt_max             =   3.4700000000000E+01
(PID.TID 0000.0001) %MON dynstat_salt_min             =   3.4000000000000E+01
(PID.TID 0000.0001) %MON dynstat_salt_mean            =   3.4499212665228E+01
(PID.TID 0000.0001) %MON dynstat_salt_sd              =   2.7634566487699E-01
(PID.TID 0000.0001) %MON dynstat_salt_del2            =   4.7445996008711E-07
(PID.TID 0000.0001) %MON advcfl_uvel_max              =   6.2076907180275E-04
(PID.TID 0000.0001) %MON advcfl_vvel_max              =   5.4315270237169E-04
(PID.TID 0000.0001) %MON advcfl_wvel_max              =   1.1475291800939E-03
(PID.TID 0000.0001) %MON advcfl_W_hf_max              =   1.1475291800939E-03
(PID.TID 0000.0001) %MON pe_b_mean                    =  -8.2957207447678E-01
(PID.TID 0000.0001) %MON ke_max                       =   1.1785287065464E-05
(PID.TID 0000.0001) %MON ke_mean                      =   4.0203766784512E-08
(PID.TID 0000.0001) %MON ke_vol                       =   4.2725139167691E+12
(PID.TID 0000.0001) // =======================================================
(PID.TID 0000.0001) // End MONITOR dynamic field statistics
(PID.TID 0000.0001) // =======================================================
(PID.TID 0000.0001) // =======================================================
(PID.TID 0000.0001) // Begin OBCS MONITOR field statistics
(PID.TID 0000.0001) // =======================================================
(PID.TID 0000.0001) %MON obc_N_vVel_max               =   1.4726764860965E-05
(PID.TID 0000.0001) %MON obc_N_vVel_min               =   1.4726764860964E-05
(PID.TID 0000.0001) %MON obc_N_vVel_mean              =   1.4726764860964E-05
(PID.TID 0000.0001) %MON obc_N_vVel_sd                =   3.9250782041636E-12
(PID.TID 0000.0001) %MON obc_N_vVel_Int               =   9.7196648082365E+02
(PID.TID 0000.0001) // =======================================================
(PID.TID 0000.0001) // End OBCS MONITOR field statistics
(PID.TID 0000.0001) // =======================================================
 cg2d: Sum(rhs),rhsMax =   4.50644839371241E+00  2.99898370789145E+02
(PID.TID 0000.0001)      cg2d_init_res =   5.98572719692601E-06
(PID.TID 0000.0001)      cg2d_iters(min,last) =      -1      78
(PID.TID 0000.0001)      cg2d_last_res =   8.36696832492387E-12
(PID.TID 0000.0001) // =======================================================
(PID.TID 0000.0001) // Begin MONITOR dynamic field statistics
(PID.TID 0000.0001) // =======================================================
(PID.TID 0000.0001) %MON time_tsnumber                =                   578
(PID.TID 0000.0001) %MON time_secondsf                =   5.7800000000000E+04
(PID.TID 0000.0001) %MON dynstat_eta_max              =   5.7993156189186E+00
(PID.TID 0000.0001) %MON dynstat_eta_min              =  -1.4189229872626E+01
(PID.TID 0000.0001) %MON dynstat_eta_mean             =  -2.5027343172587E+00
(PID.TID 0000.0001) %MON dynstat_eta_sd               =   4.9495036841282E+00
(PID.TID 0000.0001) %MON dynstat_eta_del2             =   2.0714202407713E-01
(PID.TID 0000.0001) %MON dynstat_uvel_max             =   1.6139912209843E-03
(PID.TID 0000.0001) %MON dynstat_uvel_min             =  -6.2260605423363E-03
(PID.TID 0000.0001) %MON dynstat_uvel_mean            =  -1.1789229888692E-07
(PID.TID 0000.0001) %MON dynstat_uvel_sd              =   2.2701866619288E-04
(PID.TID 0000.0001) %MON dynstat_uvel_del2            =   3.8168107768052E-07
(PID.TID 0000.0001) %MON dynstat_vvel_max             =   5.4448673373289E-03
(PID.TID 0000.0001) %MON dynstat_vvel_min             =  -2.6747351533976E-03
(PID.TID 0000.0001) %MON dynstat_vvel_mean            =   1.4967267259046E-05
(PID.TID 0000.0001) %MON dynstat_vvel_sd              =   1.7299289156556E-04
(PID.TID 0000.0001) %MON dynstat_vvel_del2            =   3.7085807880540E-07
(PID.TID 0000.0001) %MON dynstat_wvel_max             =   1.9911508831757E-04
(PID.TID 0000.0001) %MON dynstat_wvel_min             =  -2.3023339315221E-04
(PID.TID 0000.0001) %MON dynstat_wvel_mean            =   6.5824279055139E-09
(PID.TID 0000.0001) %MON dynstat_wvel_sd              =   1.7768397899225E-05
(PID.TID 0000.0001) %MON dynstat_wvel_del2            =   7.7097921078575E-08
(PID.TID 0000.0001) %MON dynstat_theta_max            =   1.2000000000000E+00
(PID.TID 0000.0001) %MON dynstat_theta_min            =  -1.0000000000000E+00
(PID.TID 0000.0001) %MON dynstat_theta_mean           =   5.6899595541918E-01
(PID.TID 0000.0001) %MON dynstat_theta_sd             =   8.6852714710013E-01
(PID.TID 0000.0001) %MON dynstat_theta_del2           =   1.3033233704704E-06
(PID.TID 0000.0001) %MON dynstat_salt_max             =   3.4700000000000E+01
(PID.TID 0000.0001) %MON dynstat_salt_min             =   3.4000000000000E+01
(PID.TID 0000.0001) %MON dynstat_salt_mean            =   3.4499212521233E+01
(PID.TID 0000.0001) %MON dynstat_salt_sd              =   2.7634559325754E-01
(PID.TID 0000.0001) %MON dynstat_salt_del2            =   4.7448942603400E-07
(PID.TID 0000.0001) %MON advcfl_uvel_max              =   6.2260605423363E-04
(PID.TID 0000.0001) %MON advcfl_vvel_max              =   5.4448673373289E-04
(PID.TID 0000.0001) %MON advcfl_wvel_max              =   1.1511669657610E-03
(PID.TID 0000.0001) %MON advcfl_W_hf_max              =   1.1511669657610E-03
(PID.TID 0000.0001) %MON pe_b_mean                    =  -8.2957587152922E-01
(PID.TID 0000.0001) %MON ke_max                       =   1.1852970055451E-05
(PID.TID 0000.0001) %MON ke_mean                      =   4.0331339293045E-08
(PID.TID 0000.0001) %MON ke_vol                       =   4.2725138374996E+12
(PID.TID 0000.0001) // =======================================================
(PID.TID 0000.0001) // End MONITOR dynamic field statistics
(PID.TID 0000.0001) // =======================================================
(PID.TID 0000.0001) // =======================================================
(PID.TID 0000.0001) // Begin OBCS MONITOR field statistics
(PID.TID 0000.0001) // =======================================================
(PID.TID 0000.0001) %MON obc_N_vVel_max               =   1.4740913959194E-05
(PID.TID 0000.0001) %MON obc_N_vVel_min               =   1.4740913959193E-05
(PID.TID 0000.0001) %MON obc_N_vVel_mean              =   1.4740913959193E-05
(PID.TID 0000.0001) %MON obc_N_vVel_sd                =   4.3260792132152E-12
(PID.TID 0000.0001) %MON obc_N_vVel_Int               =   9.7290032130677E+02
(PID.TID 0000.0001) // =======================================================
(PID.TID 0000.0001) // End OBCS MONITOR field statistics
(PID.TID 0000.0001) // =======================================================
 cg2d: Sum(rhs),rhsMax =   4.50647130114290E+00  2.99898447142476E+02
(PID.TID 0000.0001)      cg2d_init_res =   5.88339193754651E-06
(PID.TID 0000.0001)      cg2d_iters(min,last) =      -1      77
(PID.TID 0000.0001)      cg2d_last_res =   9.86207739759850E-12
(PID.TID 0000.0001) // =======================================================
(PID.TID 0000.0001) // Begin MONITOR dynamic field statistics
(PID.TID 0000.0001) // =======================================================
(PID.TID 0000.0001) %MON time_tsnumber                =                   579
(PID.TID 0000.0001) %MON time_secondsf                =   5.7900000000000E+04
(PID.TID 0000.0001) %MON dynstat_eta_max              =   5.7993065279729E+00
(PID.TID 0000.0001) %MON dynstat_eta_min              =  -1.4189254441463E+01
(PID.TID 0000.0001) %MON dynstat_eta_mean             =  -2.5027476764905E+00
(PID.TID 0000.0001) %MON dynstat_eta_sd               =   4.9495081329305E+00
(PID.TID 0000.0001) %MON dynstat_eta_del2             =   2.0714203465982E-01
(PID.TID 0000.0001) %MON dynstat_uvel_max             =   1.6165163591291E-03
(PID.TID 0000.0001) %MON dynstat_uvel_min             =  -6.2444731707476E-03
(PID.TID 0000.0001) %MON dynstat_uvel_mean            =  -1.1775189954159E-07
(PID.TID 0000.0001) %MON dynstat_uvel_sd              =   2.2738962532483E-04
(PID.TID 0000.0001) %MON dynstat_uvel_del2            =   3.8236490486610E-07
(PID.TID 0000.0001) %MON dynstat_vvel_max             =   5.4582629327715E-03
(PID.TID 0000.0001) %MON dynstat_vvel_min             =  -2.6829311533900E-03
(PID.TID 0000.0001) %MON dynstat_vvel_mean            =   1.4972718260227E-05
(PID.TID 0000.0001) %MON dynstat_vvel_sd              =   1.7333778727689E-04
(PID.TID 0000.0001) %MON dynstat_vvel_del2            =   3.7248863986495E-07
(PID.TID 0000.0001) %MON dynstat_wvel_max             =   1.9993451427157E-04
(PID.TID 0000.0001) %MON dynstat_wvel_min             =  -2.3096231352475E-04
(PID.TID 0000.0001) %MON dynstat_wvel_mean            =   6.5386864887243E-09
(PID.TID 0000.0001) %MON dynstat_wvel_sd              =   1.8120054351013E-05
(PID.TID 0000.0001) %MON dynstat_wvel_del2            =   7.7767156473344E-08
(PID.TID 0000.0001) %MON dynstat_theta_max            =   1.2000000000000E+00
(PID.TID 0000.0001) %MON dynstat_theta_min            =  -1.0000000000000E+00
(PID.TID 0000.0001) %MON dynstat_theta_mean           =   5.6899559432799E-01
(PID.TID 0000.0001) %MON dynstat_theta_sd             =   8.6852695554904E-01
(PID.TID 0000.0001) %MON dynstat_theta_del2           =   1.3018192170328E-06
(PID.TID 0000.0001) %MON dynstat_salt_max             =   3.4700000000000E+01
(PID.TID 0000.0001) %MON dynstat_salt_min             =   3.4000000000000E+01
(PID.TID 0000.0001) %MON dynstat_salt_mean            =   3.4499212377076E+01
(PID.TID 0000.0001) %MON dynstat_salt_sd              =   2.7634552153438E-01
(PID.TID 0000.0001) %MON dynstat_salt_del2            =   4.7431034537082E-07
(PID.TID 0000.0001) %MON advcfl_uvel_max              =   6.2444731707476E-04
(PID.TID 0000.0001) %MON advcfl_vvel_max              =   5.4582629327715E-04
(PID.TID 0000.0001) %MON advcfl_wvel_max              =   1.1548115676237E-03
(PID.TID 0000.0001) %MON advcfl_W_hf_max              =   1.1548115676237E-03
(PID.TID 0000.0001) %MON pe_b_mean                    =  -8.2957966725913E-01
(PID.TID 0000.0001) %MON ke_max                       =   1.1921017546952E-05
(PID.TID 0000.0001) %MON ke_mean                      =   4.0473752775596E-08
(PID.TID 0000.0001) %MON ke_vol                       =   4.2725137581555E+12
(PID.TID 0000.0001) // =======================================================
(PID.TID 0000.0001) // End MONITOR dynamic field statistics
(PID.TID 0000.0001) // =======================================================
(PID.TID 0000.0001) // =======================================================
(PID.TID 0000.0001) // Begin OBCS MONITOR field statistics
(PID.TID 0000.0001) // =======================================================
(PID.TID 0000.0001) %MON obc_N_vVel_max               =   1.4745244246022E-05
(PID.TID 0000.0001) %MON obc_N_vVel_min               =   1.4745244246021E-05
(PID.TID 0000.0001) %MON obc_N_vVel_mean              =   1.4745244246021E-05
(PID.TID 0000.0001) %MON obc_N_vVel_sd                =   4.9214715595357E-12
(PID.TID 0000.0001) %MON obc_N_vVel_Int               =   9.7318612023741E+02
(PID.TID 0000.0001) // =======================================================
(PID.TID 0000.0001) // End OBCS MONITOR field statistics
(PID.TID 0000.0001) // =======================================================
 cg2d: Sum(rhs),rhsMax =   4.50649419677985E+00  2.99898523406925E+02
(PID.TID 0000.0001)      cg2d_init_res =   5.89490453577317E-06
(PID.TID 0000.0001)      cg2d_iters(min,last) =      -1      75
(PID.TID 0000.0001)      cg2d_last_res =   9.87379470124449E-12
(PID.TID 0000.0001) // =======================================================
(PID.TID 0000.0001) // Begin MONITOR dynamic field statistics
(PID.TID 0000.0001) // =======================================================
(PID.TID 0000.0001) %MON time_tsnumber                =                   580
(PID.TID 0000.0001) %MON time_secondsf                =   5.8000000000000E+04
(PID.TID 0000.0001) %MON dynstat_eta_max              =   5.7992934624858E+00
(PID.TID 0000.0001) %MON dynstat_eta_min              =  -1.4189279011597E+01
(PID.TID 0000.0001) %MON dynstat_eta_mean             =  -2.5027610284373E+00
(PID.TID 0000.0001) %MON dynstat_eta_sd               =   4.9495125757906E+00
(PID.TID 0000.0001) %MON dynstat_eta_del2             =   2.0714204518683E-01
(PID.TID 0000.0001) %MON dynstat_uvel_max             =   1.6190333080859E-03
(PID.TID 0000.0001) %MON dynstat_uvel_min             =  -6.2629289006422E-03
(PID.TID 0000.0001) %MON dynstat_uvel_mean            =  -1.1849450654919E-07
(PID.TID 0000.0001) %MON dynstat_uvel_sd              =   2.2776219019911E-04
(PID.TID 0000.0001) %MON dynstat_uvel_del2            =   3.8305615506988E-07
(PID.TID 0000.0001) %MON dynstat_vvel_max             =   5.4716844730400E-03
(PID.TID 0000.0001) %MON dynstat_vvel_min             =  -2.6911330976152E-03
(PID.TID 0000.0001) %MON dynstat_vvel_mean            =   1.4976019200645E-05
(PID.TID 0000.0001) %MON dynstat_vvel_sd              =   1.7375248911762E-04
(PID.TID 0000.0001) %MON dynstat_vvel_del2            =   3.7457341038903E-07
(PID.TID 0000.0001) %MON dynstat_wvel_max             =   2.0075614788471E-04
(PID.TID 0000.0001) %MON dynstat_wvel_min             =  -2.3169264174562E-04
(PID.TID 0000.0001) %MON dynstat_wvel_mean            =   6.5867069230122E-09
(PID.TID 0000.0001) %MON dynstat_wvel_sd              =   1.8596534265901E-05
(PID.TID 0000.0001) %MON dynstat_wvel_del2            =   7.9153404649466E-08
(PID.TID 0000.0001) %MON dynstat_theta_max            =   1.2000000000000E+00
(PID.TID 0000.0001) %MON dynstat_theta_min            =  -1.0000000000000E+00
(PID.TID 0000.0001) %MON dynstat_theta_mean           =   5.6899523285698E-01
(PID.TID 0000.0001) %MON dynstat_theta_sd             =   8.6852676366705E-01
(PID.TID 0000.0001) %MON dynstat_theta_del2           =   1.2996339202485E-06
(PID.TID 0000.0001) %MON dynstat_salt_max             =   3.4700000000000E+01
(PID.TID 0000.0001) %MON dynstat_salt_min             =   3.4000000000000E+01
(PID.TID 0000.0001) %MON dynstat_salt_mean            =   3.4499212232768E+01
(PID.TID 0000.0001) %MON dynstat_salt_sd              =   2.7634544968584E-01
(PID.TID 0000.0001) %MON dynstat_salt_del2            =   4.7394325437990E-07
(PID.TID 0000.0001) %MON advcfl_uvel_max              =   6.2629289006422E-04
(PID.TID 0000.0001) %MON advcfl_vvel_max              =   5.4716844730400E-04
(PID.TID 0000.0001) %MON advcfl_wvel_max              =   1.1584632087281E-03
(PID.TID 0000.0001) %MON advcfl_W_hf_max              =   1.1584632087281E-03
(PID.TID 0000.0001) %MON pe_b_mean                    =  -8.2958346233191E-01
(PID.TID 0000.0001) %MON ke_max                       =   1.1989432245484E-05
(PID.TID 0000.0001) %MON ke_mean                      =   4.0628872898777E-08
(PID.TID 0000.0001) %MON ke_vol                       =   4.2725136788016E+12
(PID.TID 0000.0001) // =======================================================
(PID.TID 0000.0001) // End MONITOR dynamic field statistics
(PID.TID 0000.0001) // =======================================================
(PID.TID 0000.0001) // =======================================================
(PID.TID 0000.0001) // Begin OBCS MONITOR field statistics
(PID.TID 0000.0001) // =======================================================
(PID.TID 0000.0001) %MON obc_N_vVel_max               =   1.4741545702550E-05
(PID.TID 0000.0001) %MON obc_N_vVel_min               =   1.4741545702550E-05
(PID.TID 0000.0001) %MON obc_N_vVel_mean              =   1.4741545702550E-05
(PID.TID 0000.0001) %MON obc_N_vVel_sd                =   4.3141121661871E-12
(PID.TID 0000.0001) %MON obc_N_vVel_Int               =   9.7294201636827E+02
(PID.TID 0000.0001) // =======================================================
(PID.TID 0000.0001) // End OBCS MONITOR field statistics
(PID.TID 0000.0001) // =======================================================
 cg2d: Sum(rhs),rhsMax =   4.50651708427066E+00  2.99898599662602E+02
(PID.TID 0000.0001)      cg2d_init_res =   5.91369922110693E-06
(PID.TID 0000.0001)      cg2d_iters(min,last) =      -1      75
(PID.TID 0000.0001)      cg2d_last_res =   9.95344390430062E-12
(PID.TID 0000.0001) // =======================================================
(PID.TID 0000.0001) // Begin MONITOR dynamic field statistics
(PID.TID 0000.0001) // =======================================================
(PID.TID 0000.0001) %MON time_tsnumber                =                   581
(PID.TID 0000.0001) %MON time_secondsf                =   5.8100000000000E+04
(PID.TID 0000.0001) %MON dynstat_eta_max              =   5.7992799878828E+00
(PID.TID 0000.0001) %MON dynstat_eta_min              =  -1.4189303615445E+01
(PID.TID 0000.0001) %MON dynstat_eta_mean             =  -2.5027743757933E+00
(PID.TID 0000.0001) %MON dynstat_eta_sd               =   4.9495170194150E+00
(PID.TID 0000.0001) %MON dynstat_eta_del2             =   2.0714205573106E-01
(PID.TID 0000.0001) %MON dynstat_uvel_max             =   1.6215432646547E-03
(PID.TID 0000.0001) %MON dynstat_uvel_min             =  -6.2814281699364E-03
(PID.TID 0000.0001) %MON dynstat_uvel_mean            =  -1.2019740510647E-07
(PID.TID 0000.0001) %MON dynstat_uvel_sd              =   2.2813632187538E-04
(PID.TID 0000.0001) %MON dynstat_uvel_del2            =   3.8375498662456E-07
(PID.TID 0000.0001) %MON dynstat_vvel_max             =   5.4850982435708E-03
(PID.TID 0000.0001) %MON dynstat_vvel_min             =  -2.6993401555524E-03
(PID.TID 0000.0001) %MON dynstat_vvel_mean            =   1.4977854795451E-05
(PID.TID 0000.0001) %MON dynstat_vvel_sd              =   1.7422054726835E-04
(PID.TID 0000.0001) %MON dynstat_vvel_del2            =   3.7700519143038E-07
(PID.TID 0000.0001) %MON dynstat_wvel_max             =   2.0158034540968E-04
(PID.TID 0000.0001) %MON dynstat_wvel_min             =  -2.3242446335010E-04
(PID.TID 0000.0001) %MON dynstat_wvel_mean            =   6.6356440735907E-09
(PID.TID 0000.0001) %MON dynstat_wvel_sd              =   1.9158977063212E-05
(PID.TID 0000.0001) %MON dynstat_wvel_del2            =   8.1127327580167E-08
(PID.TID 0000.0001) %MON dynstat_theta_max            =   1.2000000000000E+00
(PID.TID 0000.0001) %MON dynstat_theta_min            =  -1.0000000000000E+00
(PID.TID 0000.0001) %MON dynstat_theta_mean           =   5.6899487101131E-01
(PID.TID 0000.0001) %MON dynstat_theta_sd             =   8.6852657143416E-01
(PID.TID 0000.0001) %MON dynstat_theta_del2           =   1.2968751333785E-06
(PID.TID 0000.0001) %MON dynstat_salt_max             =   3.4700000000000E+01
(PID.TID 0000.0001) %MON dynstat_salt_min             =   3.4000000000000E+01
(PID.TID 0000.0001) %MON dynstat_salt_mean            =   3.4499212088308E+01
(PID.TID 0000.0001) %MON dynstat_salt_sd              =   2.7634537770581E-01
(PID.TID 0000.0001) %MON dynstat_salt_del2            =   4.7341846331665E-07
(PID.TID 0000.0001) %MON advcfl_uvel_max              =   6.2814281699364E-04
(PID.TID 0000.0001) %MON advcfl_vvel_max              =   5.4850982435708E-04
(PID.TID 0000.0001) %MON advcfl_wvel_max              =   1.1621223167505E-03
(PID.TID 0000.0001) %MON advcfl_W_hf_max              =   1.1621223167505E-03
(PID.TID 0000.0001) %MON pe_b_mean                    =  -8.2958725735478E-01
(PID.TID 0000.0001) %MON ke_max                       =   1.2058219162801E-05
(PID.TID 0000.0001) %MON ke_mean                      =   4.0793922826165E-08
(PID.TID 0000.0001) %MON ke_vol                       =   4.2725135994911E+12
(PID.TID 0000.0001) // =======================================================
(PID.TID 0000.0001) // End MONITOR dynamic field statistics
(PID.TID 0000.0001) // =======================================================
(PID.TID 0000.0001) // =======================================================
(PID.TID 0000.0001) // Begin OBCS MONITOR field statistics
(PID.TID 0000.0001) // =======================================================
(PID.TID 0000.0001) %MON obc_N_vVel_max               =   1.4740274040980E-05
(PID.TID 0000.0001) %MON obc_N_vVel_min               =   1.4740274040979E-05
(PID.TID 0000.0001) %MON obc_N_vVel_mean              =   1.4740274040980E-05
(PID.TID 0000.0001) %MON obc_N_vVel_sd                =  -1.7422491651898E-23
(PID.TID 0000.0001) %MON obc_N_vVel_Int               =   9.7285808670465E+02
(PID.TID 0000.0001) // =======================================================
(PID.TID 0000.0001) // End OBCS MONITOR field statistics
(PID.TID 0000.0001) // =======================================================
 cg2d: Sum(rhs),rhsMax =   4.50653997054405E+00  2.99898675944038E+02
(PID.TID 0000.0001)      cg2d_init_res =   5.93651020380221E-06
(PID.TID 0000.0001)      cg2d_iters(min,last) =      -1      77
(PID.TID 0000.0001)      cg2d_last_res =   9.97852124501108E-12
(PID.TID 0000.0001) // =======================================================
(PID.TID 0000.0001) // Begin MONITOR dynamic field statistics
(PID.TID 0000.0001) // =======================================================
(PID.TID 0000.0001) %MON time_tsnumber                =                   582
(PID.TID 0000.0001) %MON time_secondsf                =   5.8200000000000E+04
(PID.TID 0000.0001) %MON dynstat_eta_max              =   5.7992664426814E+00
(PID.TID 0000.0001) %MON dynstat_eta_min              =  -1.4189328257635E+01
(PID.TID 0000.0001) %MON dynstat_eta_mean             =  -2.5027877226945E+00
(PID.TID 0000.0001) %MON dynstat_eta_sd               =   4.9495214634975E+00
(PID.TID 0000.0001) %MON dynstat_eta_del2             =   2.0714206629057E-01
(PID.TID 0000.0001) %MON dynstat_uvel_max             =   1.6246398236452E-03
(PID.TID 0000.0001) %MON dynstat_uvel_min             =  -6.2999713045304E-03
(PID.TID 0000.0001) %MON dynstat_uvel_mean            =  -1.2213898918378E-07
(PID.TID 0000.0001) %MON dynstat_uvel_sd              =   2.2851202426323E-04
(PID.TID 0000.0001) %MON dynstat_uvel_del2            =   3.8446154581829E-07
(PID.TID 0000.0001) %MON dynstat_vvel_max             =   5.4985044291422E-03
(PID.TID 0000.0001) %MON dynstat_vvel_min             =  -2.7075511898822E-03
(PID.TID 0000.0001) %MON dynstat_vvel_mean            =   1.4979407757402E-05
(PID.TID 0000.0001) %MON dynstat_vvel_sd              =   1.7472263821535E-04
(PID.TID 0000.0001) %MON dynstat_vvel_del2            =   3.7965755188558E-07
(PID.TID 0000.0001) %MON dynstat_wvel_max             =   2.0240675467508E-04
(PID.TID 0000.0001) %MON dynstat_wvel_min             =  -2.3315791487350E-04
(PID.TID 0000.0001) %MON dynstat_wvel_mean            =   6.6514141385243E-09
(PID.TID 0000.0001) %MON dynstat_wvel_sd              =   1.9766070678607E-05
(PID.TID 0000.0001) %MON dynstat_wvel_del2            =   8.3522131291826E-08
(PID.TID 0000.0001) %MON dynstat_theta_max            =   1.2000000000000E+00
(PID.TID 0000.0001) %MON dynstat_theta_min            =  -1.0000000000000E+00
(PID.TID 0000.0001) %MON dynstat_theta_mean           =   5.6899450881403E-01
(PID.TID 0000.0001) %MON dynstat_theta_sd             =   8.6852637884709E-01
(PID.TID 0000.0001) %MON dynstat_theta_del2           =   1.2936791965870E-06
(PID.TID 0000.0001) %MON dynstat_salt_max             =   3.4700000000000E+01
(PID.TID 0000.0001) %MON dynstat_salt_min             =   3.4000000000000E+01
(PID.TID 0000.0001) %MON dynstat_salt_mean            =   3.4499211943706E+01
(PID.TID 0000.0001) %MON dynstat_salt_sd              =   2.7634530559302E-01
(PID.TID 0000.0001) %MON dynstat_salt_del2            =   4.7277424237869E-07
(PID.TID 0000.0001) %MON advcfl_uvel_max              =   6.2999713045304E-04
(PID.TID 0000.0001) %MON advcfl_vvel_max              =   5.4985044291422E-04
(PID.TID 0000.0001) %MON advcfl_wvel_max              =   1.1657895743675E-03
(PID.TID 0000.0001) %MON advcfl_W_hf_max              =   1.1657895743675E-03
(PID.TID 0000.0001) %MON pe_b_mean                    =  -8.2959105227920E-01
(PID.TID 0000.0001) %MON ke_max                       =   1.2127383425701E-05
(PID.TID 0000.0001) %MON ke_mean                      =   4.0965621403605E-08
(PID.TID 0000.0001) %MON ke_vol                       =   4.2725135202078E+12
(PID.TID 0000.0001) // =======================================================
(PID.TID 0000.0001) // End MONITOR dynamic field statistics
(PID.TID 0000.0001) // =======================================================
(PID.TID 0000.0001) // =======================================================
(PID.TID 0000.0001) // Begin OBCS MONITOR field statistics
(PID.TID 0000.0001) // =======================================================
(PID.TID 0000.0001) %MON obc_N_vVel_max               =   1.4742726129415E-05
(PID.TID 0000.0001) %MON obc_N_vVel_min               =   1.4742726129415E-05
(PID.TID 0000.0001) %MON obc_N_vVel_mean              =   1.4742726129415E-05
(PID.TID 0000.0001) %MON obc_N_vVel_sd                =  -1.0546552810051E-23
(PID.TID 0000.0001) %MON obc_N_vVel_Int               =   9.7301992454142E+02
(PID.TID 0000.0001) // =======================================================
(PID.TID 0000.0001) // End OBCS MONITOR field statistics
(PID.TID 0000.0001) // =======================================================
 cg2d: Sum(rhs),rhsMax =   4.50656285685749E+00  2.99898752243384E+02
(PID.TID 0000.0001)      cg2d_init_res =   5.96194821377365E-06
(PID.TID 0000.0001)      cg2d_iters(min,last) =      -1      78
(PID.TID 0000.0001)      cg2d_last_res =   7.57886246426288E-12
(PID.TID 0000.0001) // =======================================================
(PID.TID 0000.0001) // Begin MONITOR dynamic field statistics
(PID.TID 0000.0001) // =======================================================
(PID.TID 0000.0001) %MON time_tsnumber                =                   583
(PID.TID 0000.0001) %MON time_secondsf                =   5.8300000000000E+04
(PID.TID 0000.0001) %MON dynstat_eta_max              =   5.7992528903742E+00
(PID.TID 0000.0001) %MON dynstat_eta_min              =  -1.4189352921306E+01
(PID.TID 0000.0001) %MON dynstat_eta_mean             =  -2.5028010697740E+00
(PID.TID 0000.0001) %MON dynstat_eta_sd               =   4.9495259069067E+00
(PID.TID 0000.0001) %MON dynstat_eta_del2             =   2.0714207686418E-01
(PID.TID 0000.0001) %MON dynstat_uvel_max             =   1.6278104911347E-03
(PID.TID 0000.0001) %MON dynstat_uvel_min             =  -6.3185582317269E-03
(PID.TID 0000.0001) %MON dynstat_uvel_mean            =  -1.2348271065865E-07
(PID.TID 0000.0001) %MON dynstat_uvel_sd              =   2.2888933136179E-04
(PID.TID 0000.0001) %MON dynstat_uvel_del2            =   3.8517595328064E-07
(PID.TID 0000.0001) %MON dynstat_vvel_max             =   5.5119205293064E-03
(PID.TID 0000.0001) %MON dynstat_vvel_min             =  -2.7157657387447E-03
(PID.TID 0000.0001) %MON dynstat_vvel_mean            =   1.4981194762867E-05
(PID.TID 0000.0001) %MON dynstat_vvel_sd              =   1.7523780741892E-04
(PID.TID 0000.0001) %MON dynstat_vvel_del2            =   3.8239308174983E-07
(PID.TID 0000.0001) %MON dynstat_wvel_max             =   2.0323504955847E-04
(PID.TID 0000.0001) %MON dynstat_wvel_min             =  -2.3389305987345E-04
(PID.TID 0000.0001) %MON dynstat_wvel_mean            =   6.6493491747992E-09
(PID.TID 0000.0001) %MON dynstat_wvel_sd              =   2.0377582432148E-05
(PID.TID 0000.0001) %MON dynstat_wvel_del2            =   8.6154017146154E-08
(PID.TID 0000.0001) %MON dynstat_theta_max            =   1.2000000000000E+00
(PID.TID 0000.0001) %MON dynstat_theta_min            =  -1.0000000000000E+00
(PID.TID 0000.0001) %MON dynstat_theta_mean           =   5.6899414629928E-01
(PID.TID 0000.0001) %MON dynstat_theta_sd             =   8.6852618590155E-01
(PID.TID 0000.0001) %MON dynstat_theta_del2           =   1.2902048431162E-06
(PID.TID 0000.0001) %MON dynstat_salt_max             =   3.4700000000000E+01
(PID.TID 0000.0001) %MON dynstat_salt_min             =   3.4000000000000E+01
(PID.TID 0000.0001) %MON dynstat_salt_mean            =   3.4499211798971E+01
(PID.TID 0000.0001) %MON dynstat_salt_sd              =   2.7634523334623E-01
(PID.TID 0000.0001) %MON dynstat_salt_del2            =   4.7205497260902E-07
(PID.TID 0000.0001) %MON advcfl_uvel_max              =   6.3185582317269E-04
(PID.TID 0000.0001) %MON advcfl_vvel_max              =   5.5119205293064E-04
(PID.TID 0000.0001) %MON advcfl_wvel_max              =   1.1694652993673E-03
(PID.TID 0000.0001) %MON advcfl_W_hf_max              =   1.1694652993673E-03
(PID.TID 0000.0001) %MON pe_b_mean                    =  -8.2959484673235E-01
(PID.TID 0000.0001) %MON ke_max                       =   1.2196927379547E-05
(PID.TID 0000.0001) %MON ke_mean                      =   4.1140365325620E-08
(PID.TID 0000.0001) %MON ke_vol                       =   4.2725134409272E+12
(PID.TID 0000.0001) // =======================================================
(PID.TID 0000.0001) // End MONITOR dynamic field statistics
(PID.TID 0000.0001) // =======================================================
(PID.TID 0000.0001) // =======================================================
(PID.TID 0000.0001) // Begin OBCS MONITOR field statistics
(PID.TID 0000.0001) // =======================================================
(PID.TID 0000.0001) %MON obc_N_vVel_max               =   1.4745749122753E-05
(PID.TID 0000.0001) %MON obc_N_vVel_min               =   1.4745749122752E-05
(PID.TID 0000.0001) %MON obc_N_vVel_mean              =   1.4745749122753E-05
(PID.TID 0000.0001) %MON obc_N_vVel_sd                =  -8.0391615782497E-24
(PID.TID 0000.0001) %MON obc_N_vVel_Int               =   9.7321944210168E+02
(PID.TID 0000.0001) // =======================================================
(PID.TID 0000.0001) // End OBCS MONITOR field statistics
(PID.TID 0000.0001) // =======================================================
 cg2d: Sum(rhs),rhsMax =   4.50658574066152E+00  2.99898828547119E+02
(PID.TID 0000.0001)      cg2d_init_res =   5.98795055546254E-06
(PID.TID 0000.0001)      cg2d_iters(min,last) =      -1      78
(PID.TID 0000.0001)      cg2d_last_res =   7.80041246944313E-12
(PID.TID 0000.0001) // =======================================================
(PID.TID 0000.0001) // Begin MONITOR dynamic field statistics
(PID.TID 0000.0001) // =======================================================
(PID.TID 0000.0001) %MON time_tsnumber                =                   584
(PID.TID 0000.0001) %MON time_secondsf                =   5.8400000000000E+04
(PID.TID 0000.0001) %MON dynstat_eta_max              =   5.7992393568719E+00
(PID.TID 0000.0001) %MON dynstat_eta_min              =  -1.4189377592480E+01
(PID.TID 0000.0001) %MON dynstat_eta_mean             =  -2.5028144155028E+00
(PID.TID 0000.0001) %MON dynstat_eta_sd               =   4.9495303493788E+00
(PID.TID 0000.0001) %MON dynstat_eta_del2             =   2.0714208745227E-01
(PID.TID 0000.0001) %MON dynstat_uvel_max             =   1.6309821034766E-03
(PID.TID 0000.0001) %MON dynstat_uvel_min             =  -6.3371884881773E-03
(PID.TID 0000.0001) %MON dynstat_uvel_mean            =  -1.2373435191632E-07
(PID.TID 0000.0001) %MON dynstat_uvel_sd              =   2.2926829146664E-04
(PID.TID 0000.0001) %MON dynstat_uvel_del2            =   3.8589828028378E-07
(PID.TID 0000.0001) %MON dynstat_vvel_max             =   5.5253584224104E-03
(PID.TID 0000.0001) %MON dynstat_vvel_min             =  -2.7239844788278E-03
(PID.TID 0000.0001) %MON dynstat_vvel_mean            =   1.4983090579180E-05
(PID.TID 0000.0001) %MON dynstat_vvel_sd              =   1.7574476245220E-04
(PID.TID 0000.0001) %MON dynstat_vvel_del2            =   3.8507189872916E-07
(PID.TID 0000.0001) %MON dynstat_wvel_max             =   2.0406516865625E-04
(PID.TID 0000.0001) %MON dynstat_wvel_min             =  -2.3462982393235E-04
(PID.TID 0000.0001) %MON dynstat_wvel_mean            =   6.6477526513082E-09
(PID.TID 0000.0001) %MON dynstat_wvel_sd              =   2.0956741162271E-05
(PID.TID 0000.0001) %MON dynstat_wvel_del2            =   8.8839405344278E-08
(PID.TID 0000.0001) %MON dynstat_theta_max            =   1.2000000000000E+00
(PID.TID 0000.0001) %MON dynstat_theta_min            =  -1.0000000000000E+00
(PID.TID 0000.0001) %MON dynstat_theta_mean           =   5.6899378349954E-01
(PID.TID 0000.0001) %MON dynstat_theta_sd             =   8.6852599259660E-01
(PID.TID 0000.0001) %MON dynstat_theta_del2           =   1.2866242474611E-06
(PID.TID 0000.0001) %MON dynstat_salt_max             =   3.4700000000000E+01
(PID.TID 0000.0001) %MON dynstat_salt_min             =   3.4000000000000E+01
(PID.TID 0000.0001) %MON dynstat_salt_mean            =   3.4499211654114E+01
(PID.TID 0000.0001) %MON dynstat_salt_sd              =   2.7634516096511E-01
(PID.TID 0000.0001) %MON dynstat_salt_del2            =   4.7130852015472E-07
(PID.TID 0000.0001) %MON advcfl_uvel_max              =   6.3371884881773E-04
(PID.TID 0000.0001) %MON advcfl_vvel_max              =   5.5253584224104E-04
(PID.TID 0000.0001) %MON advcfl_wvel_max              =   1.1731491196618E-03
(PID.TID 0000.0001) %MON advcfl_W_hf_max              =   1.1731491196618E-03
(PID.TID 0000.0001) %MON pe_b_mean                    =  -8.2959864039007E-01
(PID.TID 0000.0001) %MON ke_max                       =   1.2266849743815E-05
(PID.TID 0000.0001) %MON ke_mean                      =   4.1314443790714E-08
(PID.TID 0000.0001) %MON ke_vol                       =   4.2725133616455E+12
(PID.TID 0000.0001) // =======================================================
(PID.TID 0000.0001) // End MONITOR dynamic field statistics
(PID.TID 0000.0001) // =======================================================
(PID.TID 0000.0001) // =======================================================
(PID.TID 0000.0001) // Begin OBCS MONITOR field statistics
(PID.TID 0000.0001) // =======================================================
(PID.TID 0000.0001) %MON obc_N_vVel_max               =   1.4747398984230E-05
(PID.TID 0000.0001) %MON obc_N_vVel_min               =   1.4747398984230E-05
(PID.TID 0000.0001) %MON obc_N_vVel_mean              =   1.4747398984230E-05
(PID.TID 0000.0001) %MON obc_N_vVel_sd                =   4.1304479338089E-12
(PID.TID 0000.0001) %MON obc_N_vVel_Int               =   9.7332833295917E+02
(PID.TID 0000.0001) // =======================================================
(PID.TID 0000.0001) // End OBCS MONITOR field statistics
(PID.TID 0000.0001) // =======================================================
 cg2d: Sum(rhs),rhsMax =   4.50660861956980E+00  2.99898904844865E+02
(PID.TID 0000.0001)      cg2d_init_res =   6.01333906037967E-06
(PID.TID 0000.0001)      cg2d_iters(min,last) =      -1      78
(PID.TID 0000.0001)      cg2d_last_res =   7.91890158350890E-12
(PID.TID 0000.0001) // =======================================================
(PID.TID 0000.0001) // Begin MONITOR dynamic field statistics
(PID.TID 0000.0001) // =======================================================
(PID.TID 0000.0001) %MON time_tsnumber                =                   585
(PID.TID 0000.0001) %MON time_secondsf                =   5.8500000000000E+04
(PID.TID 0000.0001) %MON dynstat_eta_max              =   5.7992258561215E+00
(PID.TID 0000.0001) %MON dynstat_eta_min              =  -1.4189402270063E+01
(PID.TID 0000.0001) %MON dynstat_eta_mean             =  -2.5028277584693E+00
(PID.TID 0000.0001) %MON dynstat_eta_sd               =   4.9495347912185E+00
(PID.TID 0000.0001) %MON dynstat_eta_del2             =   2.0714209805485E-01
(PID.TID 0000.0001) %MON dynstat_uvel_max             =   1.6341542814686E-03
(PID.TID 0000.0001) %MON dynstat_uvel_min             =  -6.3558615705714E-03
(PID.TID 0000.0001) %MON dynstat_uvel_mean            =  -1.2281921707946E-07
(PID.TID 0000.0001) %MON dynstat_uvel_sd              =   2.2964894847703E-04
(PID.TID 0000.0001) %MON dynstat_uvel_del2            =   3.8662852364642E-07
(PID.TID 0000.0001) %MON dynstat_vvel_max             =   5.5388197661097E-03
(PID.TID 0000.0001) %MON dynstat_vvel_min             =  -2.7322085587631E-03
(PID.TID 0000.0001) %MON dynstat_vvel_mean            =   1.4984754177850E-05
(PID.TID 0000.0001) %MON dynstat_vvel_sd              =   1.7622313963290E-04
(PID.TID 0000.0001) %MON dynstat_vvel_del2            =   3.8755981102327E-07
(PID.TID 0000.0001) %MON dynstat_wvel_max             =   2.0489716478650E-04
(PID.TID 0000.0001) %MON dynstat_wvel_min             =  -2.3536811631847E-04
(PID.TID 0000.0001) %MON dynstat_wvel_mean            =   6.6515702137162E-09
(PID.TID 0000.0001) %MON dynstat_wvel_sd              =   2.1471619132980E-05
(PID.TID 0000.0001) %MON dynstat_wvel_del2            =   9.1407059265190E-08
(PID.TID 0000.0001) %MON dynstat_theta_max            =   1.2000000000000E+00
(PID.TID 0000.0001) %MON dynstat_theta_min            =  -1.0000000000000E+00
(PID.TID 0000.0001) %MON dynstat_theta_mean           =   5.6899342044215E-01
(PID.TID 0000.0001) %MON dynstat_theta_sd             =   8.6852579892373E-01
(PID.TID 0000.0001) %MON dynstat_theta_del2           =   1.2831134560496E-06
(PID.TID 0000.0001) %MON dynstat_salt_max             =   3.4700000000000E+01
(PID.TID 0000.0001) %MON dynstat_salt_min             =   3.4000000000000E+01
(PID.TID 0000.0001) %MON dynstat_salt_mean            =   3.4499211509144E+01
(PID.TID 0000.0001) %MON dynstat_salt_sd              =   2.7634508844710E-01
(PID.TID 0000.0001) %MON dynstat_salt_del2            =   4.7058357983461E-07
(PID.TID 0000.0001) %MON advcfl_uvel_max              =   6.3558615705714E-04
(PID.TID 0000.0001) %MON advcfl_vvel_max              =   5.5388197661097E-04
(PID.TID 0000.0001) %MON advcfl_wvel_max              =   1.1768405815924E-03
(PID.TID 0000.0001) %MON advcfl_W_hf_max              =   1.1768405815924E-03
(PID.TID 0000.0001) %MON pe_b_mean                    =  -8.2960243309214E-01
(PID.TID 0000.0001) %MON ke_max                       =   1.2337147605253E-05
(PID.TID 0000.0001) %MON ke_mean                      =   4.1484262456114E-08
(PID.TID 0000.0001) %MON ke_vol                       =   4.2725132823719E+12
(PID.TID 0000.0001) // =======================================================
(PID.TID 0000.0001) // End MONITOR dynamic field statistics
(PID.TID 0000.0001) // =======================================================
(PID.TID 0000.0001) // =======================================================
(PID.TID 0000.0001) // Begin OBCS MONITOR field statistics
(PID.TID 0000.0001) // =======================================================
(PID.TID 0000.0001) %MON obc_N_vVel_max               =   1.4747781770262E-05
(PID.TID 0000.0001) %MON obc_N_vVel_min               =   1.4747781770262E-05
(PID.TID 0000.0001) %MON obc_N_vVel_mean              =   1.4747781770262E-05
(PID.TID 0000.0001) %MON obc_N_vVel_sd                =  -4.3168488217611E-24
(PID.TID 0000.0001) %MON obc_N_vVel_Int               =   9.7335359683730E+02
(PID.TID 0000.0001) // =======================================================
(PID.TID 0000.0001) // End OBCS MONITOR field statistics
(PID.TID 0000.0001) // =======================================================
 cg2d: Sum(rhs),rhsMax =   4.50663149297949E+00  2.99898981126287E+02
(PID.TID 0000.0001)      cg2d_init_res =   6.03639974016141E-06
(PID.TID 0000.0001)      cg2d_iters(min,last) =      -1      78
(PID.TID 0000.0001)      cg2d_last_res =   7.91778901785260E-12
(PID.TID 0000.0001) // =======================================================
(PID.TID 0000.0001) // Begin MONITOR dynamic field statistics
(PID.TID 0000.0001) // =======================================================
(PID.TID 0000.0001) %MON time_tsnumber                =                   586
(PID.TID 0000.0001) %MON time_secondsf                =   5.8600000000000E+04
(PID.TID 0000.0001) %MON dynstat_eta_max              =   5.7992123959722E+00
(PID.TID 0000.0001) %MON dynstat_eta_min              =  -1.4189426961975E+01
(PID.TID 0000.0001) %MON dynstat_eta_mean             =  -2.5028410982522E+00
(PID.TID 0000.0001) %MON dynstat_eta_sd               =   4.9495392327630E+00
(PID.TID 0000.0001) %MON dynstat_eta_del2             =   2.0714210867191E-01
(PID.TID 0000.0001) %MON dynstat_uvel_max             =   1.6373251003372E-03
(PID.TID 0000.0001) %MON dynstat_uvel_min             =  -6.3745772808579E-03
(PID.TID 0000.0001) %MON dynstat_uvel_mean            =  -1.2098111011297E-07
(PID.TID 0000.0001) %MON dynstat_uvel_sd              =   2.3003132799698E-04
(PID.TID 0000.0001) %MON dynstat_uvel_del2            =   3.8736658427658E-07
(PID.TID 0000.0001) %MON dynstat_vvel_max             =   5.5523014293719E-03
(PID.TID 0000.0001) %MON dynstat_vvel_min             =  -2.7404390256853E-03
(PID.TID 0000.0001) %MON dynstat_vvel_mean            =   1.4985945890916E-05
(PID.TID 0000.0001) %MON dynstat_vvel_sd              =   1.7665467170496E-04
(PID.TID 0000.0001) %MON dynstat_vvel_del2            =   3.8973571584988E-07
(PID.TID 0000.0001) %MON dynstat_wvel_max             =   2.0573110932843E-04
(PID.TID 0000.0001) %MON dynstat_wvel_min             =  -2.3610783883541E-04
(PID.TID 0000.0001) %MON dynstat_wvel_mean            =   6.6567838805448E-09
(PID.TID 0000.0001) %MON dynstat_wvel_sd              =   2.1895824546917E-05
(PID.TID 0000.0001) %MON dynstat_wvel_del2            =   9.3705560015145E-08
(PID.TID 0000.0001) %MON dynstat_theta_max            =   1.2000000000000E+00
(PID.TID 0000.0001) %MON dynstat_theta_min            =  -1.0000000000000E+00
(PID.TID 0000.0001) %MON dynstat_theta_mean           =   5.6899305715053E-01
(PID.TID 0000.0001) %MON dynstat_theta_sd             =   8.6852560488668E-01
(PID.TID 0000.0001) %MON dynstat_theta_del2           =   1.2798423442201E-06
(PID.TID 0000.0001) %MON dynstat_salt_max             =   3.4700000000000E+01
(PID.TID 0000.0001) %MON dynstat_salt_min             =   3.4000000000000E+01
(PID.TID 0000.0001) %MON dynstat_salt_mean            =   3.4499211364068E+01
(PID.TID 0000.0001) %MON dynstat_salt_sd              =   2.7634501579307E-01
(PID.TID 0000.0001) %MON dynstat_salt_del2            =   4.6992695948953E-07
(PID.TID 0000.0001) %MON advcfl_uvel_max              =   6.3745772808579E-04
(PID.TID 0000.0001) %MON advcfl_vvel_max              =   5.5523014293719E-04
(PID.TID 0000.0001) %MON advcfl_wvel_max              =   1.1805391941770E-03
(PID.TID 0000.0001) %MON advcfl_W_hf_max              =   1.1805391941770E-03
(PID.TID 0000.0001) %MON pe_b_mean                    =  -8.2960622477874E-01
(PID.TID 0000.0001) %MON ke_max                       =   1.2407819480604E-05
(PID.TID 0000.0001) %MON ke_mean                      =   4.1646557443843E-08
(PID.TID 0000.0001) %MON ke_vol                       =   4.2725132031147E+12
(PID.TID 0000.0001) // =======================================================
(PID.TID 0000.0001) // End MONITOR dynamic field statistics
(PID.TID 0000.0001) // =======================================================
(PID.TID 0000.0001) // =======================================================
(PID.TID 0000.0001) // Begin OBCS MONITOR field statistics
(PID.TID 0000.0001) // =======================================================
(PID.TID 0000.0001) %MON obc_N_vVel_max               =   1.4747789867368E-05
(PID.TID 0000.0001) %MON obc_N_vVel_min               =   1.4747789867368E-05
(PID.TID 0000.0001) %MON obc_N_vVel_mean              =   1.4747789867368E-05
(PID.TID 0000.0001) %MON obc_N_vVel_sd                =  -1.8611563782443E-23
(PID.TID 0000.0001) %MON obc_N_vVel_Int               =   9.7335413124631E+02
(PID.TID 0000.0001) // =======================================================
(PID.TID 0000.0001) // End OBCS MONITOR field statistics
(PID.TID 0000.0001) // =======================================================
 cg2d: Sum(rhs),rhsMax =   4.50665436141550E+00  2.99899057385910E+02
(PID.TID 0000.0001)      cg2d_init_res =   6.05571140815277E-06
(PID.TID 0000.0001)      cg2d_iters(min,last) =      -1      78
(PID.TID 0000.0001)      cg2d_last_res =   7.81636838075060E-12
(PID.TID 0000.0001) // =======================================================
(PID.TID 0000.0001) // Begin MONITOR dynamic field statistics
(PID.TID 0000.0001) // =======================================================
(PID.TID 0000.0001) %MON time_tsnumber                =                   587
(PID.TID 0000.0001) %MON time_secondsf                =   5.8700000000000E+04
(PID.TID 0000.0001) %MON dynstat_eta_max              =   5.7991989770963E+00
(PID.TID 0000.0001) %MON dynstat_eta_min              =  -1.4189451675041E+01
(PID.TID 0000.0001) %MON dynstat_eta_mean             =  -2.5028544350974E+00
(PID.TID 0000.0001) %MON dynstat_eta_sd               =   4.9495436740822E+00
(PID.TID 0000.0001) %MON dynstat_eta_del2             =   2.0714211930340E-01
(PID.TID 0000.0001) %MON dynstat_uvel_max             =   1.6404920507145E-03
(PID.TID 0000.0001) %MON dynstat_uvel_min             =  -6.3933358960115E-03
(PID.TID 0000.0001) %MON dynstat_uvel_mean            =  -1.1864732277357E-07
(PID.TID 0000.0001) %MON dynstat_uvel_sd              =   2.3041543279126E-04
(PID.TID 0000.0001) %MON dynstat_uvel_del2            =   3.8811225268148E-07
(PID.TID 0000.0001) %MON dynstat_vvel_max             =   5.5658001184469E-03
(PID.TID 0000.0001) %MON dynstat_vvel_min             =  -2.7486762783067E-03
(PID.TID 0000.0001) %MON dynstat_vvel_mean            =   1.4986603521727E-05
(PID.TID 0000.0001) %MON dynstat_vvel_sd              =   1.7702419834167E-04
(PID.TID 0000.0001) %MON dynstat_vvel_del2            =   3.9149793679167E-07
(PID.TID 0000.0001) %MON dynstat_wvel_max             =   2.0656704781830E-04
(PID.TID 0000.0001) %MON dynstat_wvel_min             =  -2.3684895184221E-04
(PID.TID 0000.0001) %MON dynstat_wvel_mean            =   6.6584126717350E-09
(PID.TID 0000.0001) %MON dynstat_wvel_sd              =   2.2208779707928E-05
(PID.TID 0000.0001) %MON dynstat_wvel_del2            =   9.5607328251174E-08
(PID.TID 0000.0001) %MON dynstat_theta_max            =   1.2000000000000E+00
(PID.TID 0000.0001) %MON dynstat_theta_min            =  -1.0000000000000E+00
(PID.TID 0000.0001) %MON dynstat_theta_mean           =   5.6899269364557E-01
(PID.TID 0000.0001) %MON dynstat_theta_sd             =   8.6852541049168E-01
(PID.TID 0000.0001) %MON dynstat_theta_del2           =   1.2769643622392E-06
(PID.TID 0000.0001) %MON dynstat_salt_max             =   3.4700000000000E+01
(PID.TID 0000.0001) %MON dynstat_salt_min             =   3.4000000000000E+01
(PID.TID 0000.0001) %MON dynstat_salt_mean            =   3.4499211218892E+01
(PID.TID 0000.0001) %MON dynstat_salt_sd              =   2.7634494300517E-01
(PID.TID 0000.0001) %MON dynstat_salt_del2            =   4.6938075189380E-07
(PID.TID 0000.0001) %MON advcfl_uvel_max              =   6.3933358960115E-04
(PID.TID 0000.0001) %MON advcfl_vvel_max              =   5.5658001184469E-04
(PID.TID 0000.0001) %MON advcfl_wvel_max              =   1.1842447592110E-03
(PID.TID 0000.0001) %MON advcfl_W_hf_max              =   1.1842447592110E-03
(PID.TID 0000.0001) %MON pe_b_mean                    =  -8.2961001539375E-01
(PID.TID 0000.0001) %MON ke_max                       =   1.2478866875815E-05
(PID.TID 0000.0001) %MON ke_mean                      =   4.1798586103823E-08
(PID.TID 0000.0001) %MON ke_vol                       =   4.2725131238764E+12
(PID.TID 0000.0001) // =======================================================
(PID.TID 0000.0001) // End MONITOR dynamic field statistics
(PID.TID 0000.0001) // =======================================================
(PID.TID 0000.0001) // =======================================================
(PID.TID 0000.0001) // Begin OBCS MONITOR field statistics
(PID.TID 0000.0001) // =======================================================
(PID.TID 0000.0001) %MON obc_N_vVel_max               =   1.4748024471803E-05
(PID.TID 0000.0001) %MON obc_N_vVel_min               =   1.4748024471803E-05
(PID.TID 0000.0001) %MON obc_N_vVel_mean              =   1.4748024471803E-05
(PID.TID 0000.0001) %MON obc_N_vVel_sd                =  -1.5251142543946E-24
(PID.TID 0000.0001) %MON obc_N_vVel_Int               =   9.7336961513897E+02
(PID.TID 0000.0001) // =======================================================
(PID.TID 0000.0001) // End OBCS MONITOR field statistics
(PID.TID 0000.0001) // =======================================================
 cg2d: Sum(rhs),rhsMax =   4.50667722538808E+00  2.99899133622979E+02
(PID.TID 0000.0001)      cg2d_init_res =   6.07003839855889E-06
(PID.TID 0000.0001)      cg2d_iters(min,last) =      -1      78
(PID.TID 0000.0001)      cg2d_last_res =   7.65561045026400E-12
(PID.TID 0000.0001) // =======================================================
(PID.TID 0000.0001) // Begin MONITOR dynamic field statistics
(PID.TID 0000.0001) // =======================================================
(PID.TID 0000.0001) %MON time_tsnumber                =                   588
(PID.TID 0000.0001) %MON time_secondsf                =   5.8800000000000E+04
(PID.TID 0000.0001) %MON dynstat_eta_max              =   5.7991855951703E+00
(PID.TID 0000.0001) %MON dynstat_eta_min              =  -1.4189476408923E+01
(PID.TID 0000.0001) %MON dynstat_eta_mean             =  -2.5028677692820E+00
(PID.TID 0000.0001) %MON dynstat_eta_sd               =   4.9495481149921E+00
(PID.TID 0000.0001) %MON dynstat_eta_del2             =   2.0714212994936E-01
(PID.TID 0000.0001) %MON dynstat_uvel_max             =   1.6436528457118E-03
(PID.TID 0000.0001) %MON dynstat_uvel_min             =  -6.4121380141309E-03
(PID.TID 0000.0001) %MON dynstat_uvel_mean            =  -1.1630500366587E-07
(PID.TID 0000.0001) %MON dynstat_uvel_sd              =   2.3080124525254E-04
(PID.TID 0000.0001) %MON dynstat_uvel_del2            =   3.8886520033594E-07
(PID.TID 0000.0001) %MON dynstat_vvel_max             =   5.5793139494140E-03
(PID.TID 0000.0001) %MON dynstat_vvel_min             =  -2.7569201341358E-03
(PID.TID 0000.0001) %MON dynstat_vvel_mean            =   1.4986766841689E-05
(PID.TID 0000.0001) %MON dynstat_vvel_sd              =   1.7732047663048E-04
(PID.TID 0000.0001) %MON dynstat_vvel_del2            =   3.9276932906099E-07
(PID.TID 0000.0001) %MON dynstat_wvel_max             =   2.0740500317963E-04
(PID.TID 0000.0001) %MON dynstat_wvel_min             =  -2.3759146613135E-04
(PID.TID 0000.0001) %MON dynstat_wvel_mean            =   6.6548490420024E-09
(PID.TID 0000.0001) %MON dynstat_wvel_sd              =   2.2395793531875E-05
(PID.TID 0000.0001) %MON dynstat_wvel_del2            =   9.7010546489428E-08
(PID.TID 0000.0001) %MON dynstat_theta_max            =   1.2000000000000E+00
(PID.TID 0000.0001) %MON dynstat_theta_min            =  -1.0000000000000E+00
(PID.TID 0000.0001) %MON dynstat_theta_mean           =   5.6899232994606E-01
(PID.TID 0000.0001) %MON dynstat_theta_sd             =   8.6852521572082E-01
(PID.TID 0000.0001) %MON dynstat_theta_del2           =   1.2746073982001E-06
(PID.TID 0000.0001) %MON dynstat_salt_max             =   3.4700000000000E+01
(PID.TID 0000.0001) %MON dynstat_salt_min             =   3.4000000000000E+01
(PID.TID 0000.0001) %MON dynstat_salt_mean            =   3.4499211073623E+01
(PID.TID 0000.0001) %MON dynstat_salt_sd              =   2.7634487007751E-01
(PID.TID 0000.0001) %MON dynstat_salt_del2            =   4.6897981367503E-07
(PID.TID 0000.0001) %MON advcfl_uvel_max              =   6.4121380141309E-04
(PID.TID 0000.0001) %MON advcfl_vvel_max              =   5.5793139494140E-04
(PID.TID 0000.0001) %MON advcfl_wvel_max              =   1.1879573306568E-03
(PID.TID 0000.0001) %MON advcfl_W_hf_max              =   1.1879573306568E-03
(PID.TID 0000.0001) %MON pe_b_mean                    =  -8.2961380484321E-01
(PID.TID 0000.0001) %MON ke_max                       =   1.2550293725165E-05
(PID.TID 0000.0001) %MON ke_mean                      =   4.1938284833440E-08
(PID.TID 0000.0001) %MON ke_vol                       =   4.2725130446555E+12
(PID.TID 0000.0001) // =======================================================
(PID.TID 0000.0001) // End MONITOR dynamic field statistics
(PID.TID 0000.0001) // =======================================================
(PID.TID 0000.0001) // =======================================================
(PID.TID 0000.0001) // Begin OBCS MONITOR field statistics
(PID.TID 0000.0001) // =======================================================
(PID.TID 0000.0001) %MON obc_N_vVel_max               =   1.4748513922087E-05
(PID.TID 0000.0001) %MON obc_N_vVel_min               =   1.4748513922086E-05
(PID.TID 0000.0001) %MON obc_N_vVel_mean              =   1.4748513922086E-05
(PID.TID 0000.0001) %MON obc_N_vVel_sd                =   3.2395762102112E-12
(PID.TID 0000.0001) %MON obc_N_vVel_Int               =   9.7340191885770E+02
(PID.TID 0000.0001) // =======================================================
(PID.TID 0000.0001) // End OBCS MONITOR field statistics
(PID.TID 0000.0001) // =======================================================
 cg2d: Sum(rhs),rhsMax =   4.50670008480987E+00  2.99899209839252E+02
(PID.TID 0000.0001)      cg2d_init_res =   6.07841067009714E-06
(PID.TID 0000.0001)      cg2d_iters(min,last) =      -1      78
(PID.TID 0000.0001)      cg2d_last_res =   7.48611591510751E-12
(PID.TID 0000.0001) // =======================================================
(PID.TID 0000.0001) // Begin MONITOR dynamic field statistics
(PID.TID 0000.0001) // =======================================================
(PID.TID 0000.0001) %MON time_tsnumber                =                   589
(PID.TID 0000.0001) %MON time_secondsf                =   5.8900000000000E+04
(PID.TID 0000.0001) %MON dynstat_eta_max              =   5.7991722446961E+00
(PID.TID 0000.0001) %MON dynstat_eta_min              =  -1.4189501156171E+01
(PID.TID 0000.0001) %MON dynstat_eta_mean             =  -2.5028811007722E+00
(PID.TID 0000.0001) %MON dynstat_eta_sd               =   4.9495525551903E+00
(PID.TID 0000.0001) %MON dynstat_eta_del2             =   2.0714214061006E-01
(PID.TID 0000.0001) %MON dynstat_uvel_max             =   1.6468058787880E-03
(PID.TID 0000.0001) %MON dynstat_uvel_min             =  -6.4309842802661E-03
(PID.TID 0000.0001) %MON dynstat_uvel_mean            =  -1.1439497377226E-07
(PID.TID 0000.0001) %MON dynstat_uvel_sd              =   2.3118873166903E-04
(PID.TID 0000.0001) %MON dynstat_uvel_del2            =   3.8962497793235E-07
(PID.TID 0000.0001) %MON dynstat_vvel_max             =   5.5928423510521E-03
(PID.TID 0000.0001) %MON dynstat_vvel_min             =  -2.7651701522284E-03
(PID.TID 0000.0001) %MON dynstat_vvel_mean            =   1.4986488574324E-05
(PID.TID 0000.0001) %MON dynstat_vvel_sd              =   1.7753676080692E-04
(PID.TID 0000.0001) %MON dynstat_vvel_del2            =   3.9350106561074E-07
(PID.TID 0000.0001) %MON dynstat_wvel_max             =   2.0824498300086E-04
(PID.TID 0000.0001) %MON dynstat_wvel_min             =  -2.3833541799775E-04
(PID.TID 0000.0001) %MON dynstat_wvel_mean            =   6.6474852666231E-09
(PID.TID 0000.0001) %MON dynstat_wvel_sd              =   2.2448051973813E-05
(PID.TID 0000.0001) %MON dynstat_wvel_del2            =   9.7839966262474E-08
(PID.TID 0000.0001) %MON dynstat_theta_max            =   1.2000000000000E+00
(PID.TID 0000.0001) %MON dynstat_theta_min            =  -1.0000000000000E+00
(PID.TID 0000.0001) %MON dynstat_theta_mean           =   5.6899196606738E-01
(PID.TID 0000.0001) %MON dynstat_theta_sd             =   8.6852502057241E-01
(PID.TID 0000.0001) %MON dynstat_theta_del2           =   1.2728661261637E-06
(PID.TID 0000.0001) %MON dynstat_salt_max             =   3.4700000000000E+01
(PID.TID 0000.0001) %MON dynstat_salt_min             =   3.4000000000000E+01
(PID.TID 0000.0001) %MON dynstat_salt_mean            =   3.4499210928266E+01
(PID.TID 0000.0001) %MON dynstat_salt_sd              =   2.7634479700973E-01
(PID.TID 0000.0001) %MON dynstat_salt_del2            =   4.6874975880916E-07
(PID.TID 0000.0001) %MON advcfl_uvel_max              =   6.4309842802661E-04
(PID.TID 0000.0001) %MON advcfl_vvel_max              =   5.5928423510521E-04
(PID.TID 0000.0001) %MON advcfl_wvel_max              =   1.1916770899888E-03
(PID.TID 0000.0001) %MON advcfl_W_hf_max              =   1.1916770899888E-03
(PID.TID 0000.0001) %MON pe_b_mean                    =  -8.2961759300651E-01
(PID.TID 0000.0001) %MON ke_max                       =   1.2622104758917E-05
(PID.TID 0000.0001) %MON ke_mean                      =   4.2064386162597E-08
(PID.TID 0000.0001) %MON ke_vol                       =   4.2725129654505E+12
(PID.TID 0000.0001) // =======================================================
(PID.TID 0000.0001) // End MONITOR dynamic field statistics
(PID.TID 0000.0001) // =======================================================
(PID.TID 0000.0001) // =======================================================
(PID.TID 0000.0001) // Begin OBCS MONITOR field statistics
(PID.TID 0000.0001) // =======================================================
(PID.TID 0000.0001) %MON obc_N_vVel_max               =   1.4748983274529E-05
(PID.TID 0000.0001) %MON obc_N_vVel_min               =   1.4748983274528E-05
(PID.TID 0000.0001) %MON obc_N_vVel_mean              =   1.4748983274529E-05
(PID.TID 0000.0001) %MON obc_N_vVel_sd                =  -1.2666203129718E-23
(PID.TID 0000.0001) %MON obc_N_vVel_Int               =   9.7343289611890E+02
(PID.TID 0000.0001) // =======================================================
(PID.TID 0000.0001) // End OBCS MONITOR field statistics
(PID.TID 0000.0001) // =======================================================
 cg2d: Sum(rhs),rhsMax =   4.50672293907360E+00  2.99899286036778E+02
(PID.TID 0000.0001)      cg2d_init_res =   6.08018113541577E-06
(PID.TID 0000.0001)      cg2d_iters(min,last) =      -1      78
(PID.TID 0000.0001)      cg2d_last_res =   7.35404981275666E-12
(PID.TID 0000.0001) // =======================================================
(PID.TID 0000.0001) // Begin MONITOR dynamic field statistics
(PID.TID 0000.0001) // =======================================================
(PID.TID 0000.0001) %MON time_tsnumber                =                   590
(PID.TID 0000.0001) %MON time_secondsf                =   5.9000000000000E+04
(PID.TID 0000.0001) %MON dynstat_eta_max              =   5.7991589215739E+00
(PID.TID 0000.0001) %MON dynstat_eta_min              =  -1.4189525905710E+01
(PID.TID 0000.0001) %MON dynstat_eta_mean             =  -2.5028944292477E+00
(PID.TID 0000.0001) %MON dynstat_eta_sd               =   4.9495569943583E+00
(PID.TID 0000.0001) %MON dynstat_eta_del2             =   2.0714215128567E-01
(PID.TID 0000.0001) %MON dynstat_uvel_max             =   1.6499504160978E-03
(PID.TID 0000.0001) %MON dynstat_uvel_min             =  -6.4498751704472E-03
(PID.TID 0000.0001) %MON dynstat_uvel_mean            =  -1.1322915840686E-07
(PID.TID 0000.0001) %MON dynstat_uvel_sd              =   2.3157784466841E-04
(PID.TID 0000.0001) %MON dynstat_uvel_del2            =   3.9039101974164E-07
(PID.TID 0000.0001) %MON dynstat_vvel_max             =   5.6063855661685E-03
(PID.TID 0000.0001) %MON dynstat_vvel_min             =  -2.7734259195364E-03
(PID.TID 0000.0001) %MON dynstat_vvel_mean            =   1.4985796566357E-05
(PID.TID 0000.0001) %MON dynstat_vvel_sd              =   1.7767113044494E-04
(PID.TID 0000.0001) %MON dynstat_vvel_del2            =   3.9367506649797E-07
(PID.TID 0000.0001) %MON dynstat_wvel_max             =   2.0908698679438E-04
(PID.TID 0000.0001) %MON dynstat_wvel_min             =  -2.3908084723976E-04
(PID.TID 0000.0001) %MON dynstat_wvel_mean            =   6.6385311249466E-09
(PID.TID 0000.0001) %MON dynstat_wvel_sd              =   2.2362595211764E-05
(PID.TID 0000.0001) %MON dynstat_wvel_del2            =   9.8047245116906E-08
(PID.TID 0000.0001) %MON dynstat_theta_max            =   1.2000000000000E+00
(PID.TID 0000.0001) %MON dynstat_theta_min            =  -1.0000000000000E+00
(PID.TID 0000.0001) %MON dynstat_theta_mean           =   5.6899160202157E-01
(PID.TID 0000.0001) %MON dynstat_theta_sd             =   8.6852482504668E-01
(PID.TID 0000.0001) %MON dynstat_theta_del2           =   1.2717962449847E-06
(PID.TID 0000.0001) %MON dynstat_salt_max             =   3.4700000000000E+01
(PID.TID 0000.0001) %MON dynstat_salt_min             =   3.4000000000000E+01
(PID.TID 0000.0001) %MON dynstat_salt_mean            =   3.4499210782823E+01
(PID.TID 0000.0001) %MON dynstat_salt_sd              =   2.7634472380179E-01
(PID.TID 0000.0001) %MON dynstat_salt_del2            =   4.6870546379168E-07
(PID.TID 0000.0001) %MON advcfl_uvel_max              =   6.4498751704472E-04
(PID.TID 0000.0001) %MON advcfl_vvel_max              =   5.6063855661685E-04
(PID.TID 0000.0001) %MON advcfl_wvel_max              =   1.1954042361988E-03
(PID.TID 0000.0001) %MON advcfl_W_hf_max              =   1.1954042361988E-03
(PID.TID 0000.0001) %MON pe_b_mean                    =  -8.2962137976495E-01
(PID.TID 0000.0001) %MON ke_max                       =   1.2694304110548E-05
(PID.TID 0000.0001) %MON ke_mean                      =   4.2176488649205E-08
(PID.TID 0000.0001) %MON ke_vol                       =   4.2725128862614E+12
(PID.TID 0000.0001) // =======================================================
(PID.TID 0000.0001) // End MONITOR dynamic field statistics
(PID.TID 0000.0001) // =======================================================
(PID.TID 0000.0001) // =======================================================
(PID.TID 0000.0001) // Begin OBCS MONITOR field statistics
(PID.TID 0000.0001) // =======================================================
(PID.TID 0000.0001) %MON obc_N_vVel_max               =   1.4749173438088E-05
(PID.TID 0000.0001) %MON obc_N_vVel_min               =   1.4749173438088E-05
(PID.TID 0000.0001) %MON obc_N_vVel_mean              =   1.4749173438088E-05
(PID.TID 0000.0001) %MON obc_N_vVel_sd                =   4.4758552769575E-12
(PID.TID 0000.0001) %MON obc_N_vVel_Int               =   9.7344544691381E+02
(PID.TID 0000.0001) // =======================================================
(PID.TID 0000.0001) // End OBCS MONITOR field statistics
(PID.TID 0000.0001) // =======================================================
 cg2d: Sum(rhs),rhsMax =   4.50674578734069E+00  2.99899362217122E+02
(PID.TID 0000.0001)      cg2d_init_res =   6.07506917530512E-06
(PID.TID 0000.0001)      cg2d_iters(min,last) =      -1      78
(PID.TID 0000.0001)      cg2d_last_res =   7.28857249934854E-12
(PID.TID 0000.0001) // =======================================================
(PID.TID 0000.0001) // Begin MONITOR dynamic field statistics
(PID.TID 0000.0001) // =======================================================
(PID.TID 0000.0001) %MON time_tsnumber                =                   591
(PID.TID 0000.0001) %MON time_secondsf                =   5.9100000000000E+04
(PID.TID 0000.0001) %MON dynstat_eta_max              =   5.7991456236730E+00
(PID.TID 0000.0001) %MON dynstat_eta_min              =  -1.4189550646839E+01
(PID.TID 0000.0001) %MON dynstat_eta_mean             =  -2.5029077542559E+00
(PID.TID 0000.0001) %MON dynstat_eta_sd               =   4.9495614321963E+00
(PID.TID 0000.0001) %MON dynstat_eta_del2             =   2.0714216197631E-01
(PID.TID 0000.0001) %MON dynstat_uvel_max             =   1.6530865995481E-03
(PID.TID 0000.0001) %MON dynstat_uvel_min             =  -6.4688109145061E-03
(PID.TID 0000.0001) %MON dynstat_uvel_mean            =  -1.1294322363743E-07
(PID.TID 0000.0001) %MON dynstat_uvel_sd              =   2.3196852338750E-04
(PID.TID 0000.0001) %MON dynstat_uvel_del2            =   3.9116265586924E-07
(PID.TID 0000.0001) %MON dynstat_vvel_max             =   5.6199441998679E-03
(PID.TID 0000.0001) %MON dynstat_vvel_min             =  -2.7816871703692E-03
(PID.TID 0000.0001) %MON dynstat_vvel_mean            =   1.4984699603332E-05
(PID.TID 0000.0001) %MON dynstat_vvel_sd              =   1.7772655409552E-04
(PID.TID 0000.0001) %MON dynstat_vvel_del2            =   3.9330503898504E-07
(PID.TID 0000.0001) %MON dynstat_wvel_max             =   2.0993101185823E-04
(PID.TID 0000.0001) %MON dynstat_wvel_min             =  -2.3982778764561E-04
(PID.TID 0000.0001) %MON dynstat_wvel_mean            =   6.6295128706330E-09
(PID.TID 0000.0001) %MON dynstat_wvel_sd              =   2.2142312158569E-05
(PID.TID 0000.0001) %MON dynstat_wvel_del2            =   9.7611180299388E-08
(PID.TID 0000.0001) %MON dynstat_theta_max            =   1.2000000000000E+00
(PID.TID 0000.0001) %MON dynstat_theta_min            =  -1.0000000000000E+00
(PID.TID 0000.0001) %MON dynstat_theta_mean           =   5.6899123781700E-01
(PID.TID 0000.0001) %MON dynstat_theta_sd             =   8.6852462915012E-01
(PID.TID 0000.0001) %MON dynstat_theta_del2           =   1.2714110572471E-06
(PID.TID 0000.0001) %MON dynstat_salt_max             =   3.4700000000000E+01
(PID.TID 0000.0001) %MON dynstat_salt_min             =   3.4000000000000E+01
(PID.TID 0000.0001) %MON dynstat_salt_mean            =   3.4499210637298E+01
(PID.TID 0000.0001) %MON dynstat_salt_sd              =   2.7634465045585E-01
(PID.TID 0000.0001) %MON dynstat_salt_del2            =   4.6885016951734E-07
(PID.TID 0000.0001) %MON advcfl_uvel_max              =   6.4688109145061E-04
(PID.TID 0000.0001) %MON advcfl_vvel_max              =   5.6199441998679E-04
(PID.TID 0000.0001) %MON advcfl_wvel_max              =   1.1991389382280E-03
(PID.TID 0000.0001) %MON advcfl_W_hf_max              =   1.1991389382280E-03
(PID.TID 0000.0001) %MON pe_b_mean                    =  -8.2962516501550E-01
(PID.TID 0000.0001) %MON ke_max                       =   1.2766894761725E-05
(PID.TID 0000.0001) %MON ke_mean                      =   4.2275074996418E-08
(PID.TID 0000.0001) %MON ke_vol                       =   4.2725128070903E+12
(PID.TID 0000.0001) // =======================================================
(PID.TID 0000.0001) // End MONITOR dynamic field statistics
(PID.TID 0000.0001) // =======================================================
(PID.TID 0000.0001) // =======================================================
(PID.TID 0000.0001) // Begin OBCS MONITOR field statistics
(PID.TID 0000.0001) // =======================================================
(PID.TID 0000.0001) %MON obc_N_vVel_max               =   1.4748963009666E-05
(PID.TID 0000.0001) %MON obc_N_vVel_min               =   1.4748963009666E-05
(PID.TID 0000.0001) %MON obc_N_vVel_mean              =   1.4748963009666E-05
(PID.TID 0000.0001) %MON obc_N_vVel_sd                =  -5.0147824636027E-24
(PID.TID 0000.0001) %MON obc_N_vVel_Int               =   9.7343155863794E+02
(PID.TID 0000.0001) // =======================================================
(PID.TID 0000.0001) // End OBCS MONITOR field statistics
(PID.TID 0000.0001) // =======================================================
 cg2d: Sum(rhs),rhsMax =   4.50676862872399E+00  2.99899438382015E+02
(PID.TID 0000.0001)      cg2d_init_res =   6.06321272618398E-06
(PID.TID 0000.0001)      cg2d_iters(min,last) =      -1      78
(PID.TID 0000.0001)      cg2d_last_res =   7.29589939949790E-12
(PID.TID 0000.0001) // =======================================================
(PID.TID 0000.0001) // Begin MONITOR dynamic field statistics
(PID.TID 0000.0001) // =======================================================
(PID.TID 0000.0001) %MON time_tsnumber                =                   592
(PID.TID 0000.0001) %MON time_secondsf                =   5.9200000000000E+04
(PID.TID 0000.0001) %MON dynstat_eta_max              =   5.7991323502539E+00
(PID.TID 0000.0001) %MON dynstat_eta_min              =  -1.4189575371874E+01
(PID.TID 0000.0001) %MON dynstat_eta_mean             =  -2.5029210753185E+00
(PID.TID 0000.0001) %MON dynstat_eta_sd               =   4.9495658684302E+00
(PID.TID 0000.0001) %MON dynstat_eta_del2             =   2.0714217268202E-01
(PID.TID 0000.0001) %MON dynstat_uvel_max             =   1.6562152740740E-03
(PID.TID 0000.0001) %MON dynstat_uvel_min             =  -6.4877915364363E-03
(PID.TID 0000.0001) %MON dynstat_uvel_mean            =  -1.1349177387100E-07
(PID.TID 0000.0001) %MON dynstat_uvel_sd              =   2.3236069276414E-04
(PID.TID 0000.0001) %MON dynstat_uvel_del2            =   3.9193913061344E-07
(PID.TID 0000.0001) %MON dynstat_vvel_max             =   5.6335188972980E-03
(PID.TID 0000.0001) %MON dynstat_vvel_min             =  -2.7899537743705E-03
(PID.TID 0000.0001) %MON dynstat_vvel_mean            =   1.4983206449047E-05
(PID.TID 0000.0001) %MON dynstat_vvel_sd              =   1.7771068522821E-04
(PID.TID 0000.0001) %MON dynstat_vvel_del2            =   3.9243608974322E-07
(PID.TID 0000.0001) %MON dynstat_wvel_max             =   2.1077705678984E-04
(PID.TID 0000.0001) %MON dynstat_wvel_min             =  -2.4057626631292E-04
(PID.TID 0000.0001) %MON dynstat_wvel_mean            =   6.6210583768045E-09
(PID.TID 0000.0001) %MON dynstat_wvel_sd              =   2.1795959712876E-05
(PID.TID 0000.0001) %MON dynstat_wvel_del2            =   9.6538031673117E-08
(PID.TID 0000.0001) %MON dynstat_theta_max            =   1.2000000000000E+00
(PID.TID 0000.0001) %MON dynstat_theta_min            =  -1.0000000000000E+00
(PID.TID 0000.0001) %MON dynstat_theta_mean           =   5.6899087345792E-01
(PID.TID 0000.0001) %MON dynstat_theta_sd             =   8.6852443288782E-01
(PID.TID 0000.0001) %MON dynstat_theta_del2           =   1.2716806632804E-06
(PID.TID 0000.0001) %MON dynstat_salt_max             =   3.4700000000000E+01
(PID.TID 0000.0001) %MON dynstat_salt_min             =   3.4000000000000E+01
(PID.TID 0000.0001) %MON dynstat_salt_mean            =   3.4499210491692E+01
(PID.TID 0000.0001) %MON dynstat_salt_sd              =   2.7634457697331E-01
(PID.TID 0000.0001) %MON dynstat_salt_del2            =   4.6917533732277E-07
(PID.TID 0000.0001) %MON advcfl_uvel_max              =   6.4877915364363E-04
(PID.TID 0000.0001) %MON advcfl_vvel_max              =   5.6335188972980E-04
(PID.TID 0000.0001) %MON advcfl_wvel_max              =   1.2028813315646E-03
(PID.TID 0000.0001) %MON advcfl_W_hf_max              =   1.2028813315646E-03
(PID.TID 0000.0001) %MON pe_b_mean                    =  -8.2962894866799E-01
(PID.TID 0000.0001) %MON ke_max                       =   1.2839878690872E-05
(PID.TID 0000.0001) %MON ke_mean                      =   4.2361476865158E-08
(PID.TID 0000.0001) %MON ke_vol                       =   4.2725127279397E+12
(PID.TID 0000.0001) // =======================================================
(PID.TID 0000.0001) // End MONITOR dynamic field statistics
(PID.TID 0000.0001) // =======================================================
(PID.TID 0000.0001) // =======================================================
(PID.TID 0000.0001) // Begin OBCS MONITOR field statistics
(PID.TID 0000.0001) // =======================================================
(PID.TID 0000.0001) %MON obc_N_vVel_max               =   1.4748328559198E-05
(PID.TID 0000.0001) %MON obc_N_vVel_min               =   1.4748328559198E-05
(PID.TID 0000.0001) %MON obc_N_vVel_mean              =   1.4748328559198E-05
(PID.TID 0000.0001) %MON obc_N_vVel_sd                =  -1.0830896145616E-23
(PID.TID 0000.0001) %MON obc_N_vVel_Int               =   9.7338968490709E+02
(PID.TID 0000.0001) // =======================================================
(PID.TID 0000.0001) // End OBCS MONITOR field statistics
(PID.TID 0000.0001) // =======================================================
 cg2d: Sum(rhs),rhsMax =   4.50679146233597E+00  2.99899514533386E+02
(PID.TID 0000.0001)      cg2d_init_res =   6.04515558043169E-06
(PID.TID 0000.0001)      cg2d_iters(min,last) =      -1      78
(PID.TID 0000.0001)      cg2d_last_res =   7.36203530677464E-12
(PID.TID 0000.0001) // =======================================================
(PID.TID 0000.0001) // Begin MONITOR dynamic field statistics
(PID.TID 0000.0001) // =======================================================
(PID.TID 0000.0001) %MON time_tsnumber                =                   593
(PID.TID 0000.0001) %MON time_secondsf                =   5.9300000000000E+04
(PID.TID 0000.0001) %MON dynstat_eta_max              =   5.7991191011414E+00
(PID.TID 0000.0001) %MON dynstat_eta_min              =  -1.4189600077113E+01
(PID.TID 0000.0001) %MON dynstat_eta_mean             =  -2.5029343919588E+00
(PID.TID 0000.0001) %MON dynstat_eta_sd               =   4.9495703028294E+00
(PID.TID 0000.0001) %MON dynstat_eta_del2             =   2.0714218340296E-01
(PID.TID 0000.0001) %MON dynstat_uvel_max             =   1.6593376755332E-03
(PID.TID 0000.0001) %MON dynstat_uvel_min             =  -6.5068169496696E-03
(PID.TID 0000.0001) %MON dynstat_uvel_mean            =  -1.1468254913861E-07
(PID.TID 0000.0001) %MON dynstat_uvel_sd              =   2.3275426375550E-04
(PID.TID 0000.0001) %MON dynstat_uvel_del2            =   3.9271962605555E-07
(PID.TID 0000.0001) %MON dynstat_vvel_max             =   5.6471101557891E-03
(PID.TID 0000.0001) %MON dynstat_vvel_min             =  -2.7982256796673E-03
(PID.TID 0000.0001) %MON dynstat_vvel_mean            =   1.4981339182044E-05
(PID.TID 0000.0001) %MON dynstat_vvel_sd              =   1.7763539753405E-04
(PID.TID 0000.0001) %MON dynstat_vvel_del2            =   3.9114285897891E-07
(PID.TID 0000.0001) %MON dynstat_wvel_max             =   2.1162512284301E-04
(PID.TID 0000.0001) %MON dynstat_wvel_min             =  -2.4132630569657E-04
(PID.TID 0000.0001) %MON dynstat_wvel_mean            =   6.6133432109083E-09
(PID.TID 0000.0001) %MON dynstat_wvel_sd              =   2.1338194347698E-05
(PID.TID 0000.0001) %MON dynstat_wvel_del2            =   9.4862013117670E-08
(PID.TID 0000.0001) %MON dynstat_theta_max            =   1.2000000000000E+00
(PID.TID 0000.0001) %MON dynstat_theta_min            =  -1.0000000000000E+00
(PID.TID 0000.0001) %MON dynstat_theta_mean           =   5.6899050894446E-01
(PID.TID 0000.0001) %MON dynstat_theta_sd             =   8.6852423628408E-01
(PID.TID 0000.0001) %MON dynstat_theta_del2           =   1.2725351855370E-06
(PID.TID 0000.0001) %MON dynstat_salt_max             =   3.4700000000000E+01
(PID.TID 0000.0001) %MON dynstat_salt_min             =   3.4000000000000E+01
(PID.TID 0000.0001) %MON dynstat_salt_mean            =   3.4499210346005E+01
(PID.TID 0000.0001) %MON dynstat_salt_sd              =   2.7634450336210E-01
(PID.TID 0000.0001) %MON dynstat_salt_del2            =   4.6966155194115E-07
(PID.TID 0000.0001) %MON advcfl_uvel_max              =   6.5068169496696E-04
(PID.TID 0000.0001) %MON advcfl_vvel_max              =   5.6471101557891E-04
(PID.TID 0000.0001) %MON advcfl_wvel_max              =   1.2066315284829E-03
(PID.TID 0000.0001) %MON advcfl_W_hf_max              =   1.2066315284829E-03
(PID.TID 0000.0001) %MON pe_b_mean                    =  -8.2963273063758E-01
(PID.TID 0000.0001) %MON ke_max                       =   1.2913257321278E-05
(PID.TID 0000.0001) %MON ke_mean                      =   4.2437788297688E-08
(PID.TID 0000.0001) %MON ke_vol                       =   4.2725126488126E+12
(PID.TID 0000.0001) // =======================================================
(PID.TID 0000.0001) // End MONITOR dynamic field statistics
(PID.TID 0000.0001) // =======================================================
(PID.TID 0000.0001) // =======================================================
(PID.TID 0000.0001) // Begin OBCS MONITOR field statistics
(PID.TID 0000.0001) // =======================================================
(PID.TID 0000.0001) %MON obc_N_vVel_max               =   1.4747273530492E-05
(PID.TID 0000.0001) %MON obc_N_vVel_min               =   1.4747273530491E-05
(PID.TID 0000.0001) %MON obc_N_vVel_mean              =   1.4747273530492E-05
(PID.TID 0000.0001) %MON obc_N_vVel_sd                =  -2.9209815380779E-24
(PID.TID 0000.0001) %MON obc_N_vVel_Int               =   9.7332005301245E+02
(PID.TID 0000.0001) // =======================================================
(PID.TID 0000.0001) // End OBCS MONITOR field statistics
(PID.TID 0000.0001) // =======================================================
 cg2d: Sum(rhs),rhsMax =   4.50681428728310E+00  2.99899590674098E+02
(PID.TID 0000.0001)      cg2d_init_res =   6.02180349120170E-06
(PID.TID 0000.0001)      cg2d_iters(min,last) =      -1      78
(PID.TID 0000.0001)      cg2d_last_res =   7.46209597041132E-12
(PID.TID 0000.0001) // =======================================================
(PID.TID 0000.0001) // Begin MONITOR dynamic field statistics
(PID.TID 0000.0001) // =======================================================
(PID.TID 0000.0001) %MON time_tsnumber                =                   594
(PID.TID 0000.0001) %MON time_secondsf                =   5.9400000000000E+04
(PID.TID 0000.0001) %MON dynstat_eta_max              =   5.7991058761840E+00
(PID.TID 0000.0001) %MON dynstat_eta_min              =  -1.4189624762429E+01
(PID.TID 0000.0001) %MON dynstat_eta_mean             =  -2.5029477037044E+00
(PID.TID 0000.0001) %MON dynstat_eta_sd               =   4.9495747352322E+00
(PID.TID 0000.0001) %MON dynstat_eta_del2             =   2.0714219413931E-01
(PID.TID 0000.0001) %MON dynstat_uvel_max             =   1.6624550653701E-03
(PID.TID 0000.0001) %MON dynstat_uvel_min             =  -6.5258870519740E-03
(PID.TID 0000.0001) %MON dynstat_uvel_mean            =  -1.1623593118168E-07
(PID.TID 0000.0001) %MON dynstat_uvel_sd              =   2.3314913540666E-04
(PID.TID 0000.0001) %MON dynstat_uvel_del2            =   3.9350328997339E-07
(PID.TID 0000.0001) %MON dynstat_vvel_max             =   5.6607182566468E-03
(PID.TID 0000.0001) %MON dynstat_vvel_min             =  -2.8065028682942E-03
(PID.TID 0000.0001) %MON dynstat_vvel_mean            =   1.4979138060066E-05
(PID.TID 0000.0001) %MON dynstat_vvel_sd              =   1.7751607863275E-04
(PID.TID 0000.0001) %MON dynstat_vvel_del2            =   3.8952612333387E-07
(PID.TID 0000.0001) %MON dynstat_wvel_max             =   2.1247521396163E-04
(PID.TID 0000.0001) %MON dynstat_wvel_min             =  -2.4207792465154E-04
(PID.TID 0000.0001) %MON dynstat_wvel_mean            =   6.6064970537751E-09
(PID.TID 0000.0001) %MON dynstat_wvel_sd              =   2.0789579634033E-05
(PID.TID 0000.0001) %MON dynstat_wvel_del2            =   9.2645945986720E-08
(PID.TID 0000.0001) %MON dynstat_theta_max            =   1.2000000000000E+00
(PID.TID 0000.0001) %MON dynstat_theta_min            =  -1.0000000000000E+00
(PID.TID 0000.0001) %MON dynstat_theta_mean           =   5.6899014427266E-01
(PID.TID 0000.0001) %MON dynstat_theta_sd             =   8.6852403936108E-01
(PID.TID 0000.0001) %MON dynstat_theta_del2           =   1.2738699010443E-06
(PID.TID 0000.0001) %MON dynstat_salt_max             =   3.4700000000000E+01
(PID.TID 0000.0001) %MON dynstat_salt_min             =   3.4000000000000E+01
(PID.TID 0000.0001) %MON dynstat_salt_mean            =   3.4499210200235E+01
(PID.TID 0000.0001) %MON dynstat_salt_sd              =   2.7634442962892E-01
(PID.TID 0000.0001) %MON dynstat_salt_del2            =   4.7027992920215E-07
(PID.TID 0000.0001) %MON advcfl_uvel_max              =   6.5258870519740E-04
(PID.TID 0000.0001) %MON advcfl_vvel_max              =   5.6607182566468E-04
(PID.TID 0000.0001) %MON advcfl_wvel_max              =   1.2103896232577E-03
(PID.TID 0000.0001) %MON advcfl_W_hf_max              =   1.2103896232577E-03
(PID.TID 0000.0001) %MON pe_b_mean                    =  -8.2963651084425E-01
(PID.TID 0000.0001) %MON ke_max                       =   1.2987031947038E-05
(PID.TID 0000.0001) %MON ke_mean                      =   4.2506733030633E-08
(PID.TID 0000.0001) %MON ke_vol                       =   4.2725125697118E+12
(PID.TID 0000.0001) // =======================================================
(PID.TID 0000.0001) // End MONITOR dynamic field statistics
(PID.TID 0000.0001) // =======================================================
(PID.TID 0000.0001) // =======================================================
(PID.TID 0000.0001) // Begin OBCS MONITOR field statistics
(PID.TID 0000.0001) // =======================================================
(PID.TID 0000.0001) %MON obc_N_vVel_max               =   1.4745801101106E-05
(PID.TID 0000.0001) %MON obc_N_vVel_min               =   1.4745801101106E-05
(PID.TID 0000.0001) %MON obc_N_vVel_mean              =   1.4745801101106E-05
(PID.TID 0000.0001) %MON obc_N_vVel_sd                =   2.2680452892996E-12
(PID.TID 0000.0001) %MON obc_N_vVel_Int               =   9.7322287267299E+02
(PID.TID 0000.0001) // =======================================================
(PID.TID 0000.0001) // End OBCS MONITOR field statistics
(PID.TID 0000.0001) // =======================================================
 cg2d: Sum(rhs),rhsMax =   4.50683710270017E+00  2.99899666807622E+02
(PID.TID 0000.0001)      cg2d_init_res =   5.99441438443334E-06
(PID.TID 0000.0001)      cg2d_iters(min,last) =      -1      78
(PID.TID 0000.0001)      cg2d_last_res =   7.56973748659902E-12
(PID.TID 0000.0001) // =======================================================
(PID.TID 0000.0001) // Begin MONITOR dynamic field statistics
(PID.TID 0000.0001) // =======================================================
(PID.TID 0000.0001) %MON time_tsnumber                =                   595
(PID.TID 0000.0001) %MON time_secondsf                =   5.9500000000000E+04
(PID.TID 0000.0001) %MON dynstat_eta_max              =   5.7990926751330E+00
(PID.TID 0000.0001) %MON dynstat_eta_min              =  -1.4189649430116E+01
(PID.TID 0000.0001) %MON dynstat_eta_mean             =  -2.5029610101037E+00
(PID.TID 0000.0001) %MON dynstat_eta_sd               =   4.9495791655651E+00
(PID.TID 0000.0001) %MON dynstat_eta_del2             =   2.0714220489122E-01
(PID.TID 0000.0001) %MON dynstat_uvel_max             =   1.6655684237130E-03
(PID.TID 0000.0001) %MON dynstat_uvel_min             =  -6.5450017903359E-03
(PID.TID 0000.0001) %MON dynstat_uvel_mean            =  -1.1785193630299E-07
(PID.TID 0000.0001) %MON dynstat_uvel_sd              =   2.3354519876830E-04
(PID.TID 0000.0001) %MON dynstat_uvel_del2            =   3.9428926628878E-07
(PID.TID 0000.0001) %MON dynstat_vvel_max             =   5.6743432838866E-03
(PID.TID 0000.0001) %MON dynstat_vvel_min             =  -2.8147853368852E-03
(PID.TID 0000.0001) %MON dynstat_vvel_mean            =   1.4976661759066E-05
(PID.TID 0000.0001) %MON dynstat_vvel_sd              =   1.7737071392169E-04
(PID.TID 0000.0001) %MON dynstat_vvel_del2            =   3.8770783802845E-07
(PID.TID 0000.0001) %MON dynstat_wvel_max             =   2.1332733625187E-04
(PID.TID 0000.0001) %MON dynstat_wvel_min             =  -2.4283113805530E-04
(PID.TID 0000.0001) %MON dynstat_wvel_mean            =   6.6007165797050E-09
(PID.TID 0000.0001) %MON dynstat_wvel_sd              =   2.0176496441142E-05
(PID.TID 0000.0001) %MON dynstat_wvel_del2            =   8.9981961987750E-08
(PID.TID 0000.0001) %MON dynstat_theta_max            =   1.2000000000000E+00
(PID.TID 0000.0001) %MON dynstat_theta_min            =  -1.0000000000000E+00
(PID.TID 0000.0001) %MON dynstat_theta_mean           =   5.6898977943439E-01
(PID.TID 0000.0001) %MON dynstat_theta_sd             =   8.6852384213305E-01
(PID.TID 0000.0001) %MON dynstat_theta_del2           =   1.2755527003352E-06
(PID.TID 0000.0001) %MON dynstat_salt_max             =   3.4700000000000E+01
(PID.TID 0000.0001) %MON dynstat_salt_min             =   3.4000000000000E+01
(PID.TID 0000.0001) %MON dynstat_salt_mean            =   3.4499210054380E+01
(PID.TID 0000.0001) %MON dynstat_salt_sd              =   2.7634435577845E-01
(PID.TID 0000.0001) %MON dynstat_salt_del2            =   4.7099416694962E-07
(PID.TID 0000.0001) %MON advcfl_uvel_max              =   6.5450017903359E-04
(PID.TID 0000.0001) %MON advcfl_vvel_max              =   5.6743432838866E-04
(PID.TID 0000.0001) %MON advcfl_wvel_max              =   1.2141556902765E-03
(PID.TID 0000.0001) %MON advcfl_W_hf_max              =   1.2141556902765E-03
(PID.TID 0000.0001) %MON pe_b_mean                    =  -8.2964028921821E-01
(PID.TID 0000.0001) %MON ke_max                       =   1.3061204002072E-05
(PID.TID 0000.0001) %MON ke_mean                      =   4.2571493879813E-08
(PID.TID 0000.0001) %MON ke_vol                       =   4.2725124906400E+12
(PID.TID 0000.0001) // =======================================================
(PID.TID 0000.0001) // End MONITOR dynamic field statistics
(PID.TID 0000.0001) // =======================================================
(PID.TID 0000.0001) // =======================================================
(PID.TID 0000.0001) // Begin OBCS MONITOR field statistics
(PID.TID 0000.0001) // =======================================================
(PID.TID 0000.0001) %MON obc_N_vVel_max               =   1.4743928552079E-05
(PID.TID 0000.0001) %MON obc_N_vVel_min               =   1.4743928552078E-05
(PID.TID 0000.0001) %MON obc_N_vVel_mean              =   1.4743928552079E-05
(PID.TID 0000.0001) %MON obc_N_vVel_sd                =  -2.0395171978261E-23
(PID.TID 0000.0001) %MON obc_N_vVel_Int               =   9.7309928443720E+02
(PID.TID 0000.0001) // =======================================================
(PID.TID 0000.0001) // End OBCS MONITOR field statistics
(PID.TID 0000.0001) // =======================================================
 cg2d: Sum(rhs),rhsMax =   4.50685990782634E+00  2.99899742937452E+02
(PID.TID 0000.0001)      cg2d_init_res =   5.96451846364542E-06
(PID.TID 0000.0001)      cg2d_iters(min,last) =      -1      78
(PID.TID 0000.0001)      cg2d_last_res =   7.66400717904787E-12
(PID.TID 0000.0001) // =======================================================
(PID.TID 0000.0001) // Begin MONITOR dynamic field statistics
(PID.TID 0000.0001) // =======================================================
(PID.TID 0000.0001) %MON time_tsnumber                =                   596
(PID.TID 0000.0001) %MON time_secondsf                =   5.9600000000000E+04
(PID.TID 0000.0001) %MON dynstat_eta_max              =   5.7990794978475E+00
(PID.TID 0000.0001) %MON dynstat_eta_min              =  -1.4189674083593E+01
(PID.TID 0000.0001) %MON dynstat_eta_mean             =  -2.5029743107634E+00
(PID.TID 0000.0001) %MON dynstat_eta_sd               =   4.9495835938431E+00
(PID.TID 0000.0001) %MON dynstat_eta_del2             =   2.0714221565886E-01
(PID.TID 0000.0001) %MON dynstat_uvel_max             =   1.6686783007855E-03
(PID.TID 0000.0001) %MON dynstat_uvel_min             =  -6.5641611875362E-03
(PID.TID 0000.0001) %MON dynstat_uvel_mean            =  -1.1926873113449E-07
(PID.TID 0000.0001) %MON dynstat_uvel_sd              =   2.3394234199482E-04
(PID.TID 0000.0001) %MON dynstat_uvel_del2            =   3.9507672668744E-07
(PID.TID 0000.0001) %MON dynstat_vvel_max             =   5.6879851874134E-03
(PID.TID 0000.0001) %MON dynstat_vvel_min             =  -2.8230730925243E-03
(PID.TID 0000.0001) %MON dynstat_vvel_mean            =   1.4973985742687E-05
(PID.TID 0000.0001) %MON dynstat_vvel_sd              =   1.7721880571719E-04
(PID.TID 0000.0001) %MON dynstat_vvel_del2            =   3.8582465321040E-07
(PID.TID 0000.0001) %MON dynstat_wvel_max             =   2.1418149731945E-04
(PID.TID 0000.0001) %MON dynstat_wvel_min             =  -2.4358595653865E-04
(PID.TID 0000.0001) %MON dynstat_wvel_mean            =   6.5961834056057E-09
(PID.TID 0000.0001) %MON dynstat_wvel_sd              =   1.9530825729596E-05
(PID.TID 0000.0001) %MON dynstat_wvel_del2            =   8.6991966613918E-08
(PID.TID 0000.0001) %MON dynstat_theta_max            =   1.2000000000000E+00
(PID.TID 0000.0001) %MON dynstat_theta_min            =  -1.0000000000000E+00
(PID.TID 0000.0001) %MON dynstat_theta_mean           =   5.6898941441762E-01
(PID.TID 0000.0001) %MON dynstat_theta_sd             =   8.6852364460989E-01
(PID.TID 0000.0001) %MON dynstat_theta_del2           =   1.2774333586018E-06
(PID.TID 0000.0001) %MON dynstat_salt_max             =   3.4700000000000E+01
(PID.TID 0000.0001) %MON dynstat_salt_min             =   3.4000000000000E+01
(PID.TID 0000.0001) %MON dynstat_salt_mean            =   3.4499209908436E+01
(PID.TID 0000.0001) %MON dynstat_salt_sd              =   2.7634428181371E-01
(PID.TID 0000.0001) %MON dynstat_salt_del2            =   4.7176302075089E-07
(PID.TID 0000.0001) %MON advcfl_uvel_max              =   6.5641611875362E-04
(PID.TID 0000.0001) %MON advcfl_vvel_max              =   5.6879851874134E-04
(PID.TID 0000.0001) %MON advcfl_wvel_max              =   1.2179297826932E-03
(PID.TID 0000.0001) %MON advcfl_W_hf_max              =   1.2179297826932E-03
(PID.TID 0000.0001) %MON pe_b_mean                    =  -8.2964406570743E-01
(PID.TID 0000.0001) %MON ke_max                       =   1.3135775164368E-05
(PID.TID 0000.0001) %MON ke_mean                      =   4.2635514722209E-08
(PID.TID 0000.0001) %MON ke_vol                       =   4.2725124116000E+12
(PID.TID 0000.0001) // =======================================================
(PID.TID 0000.0001) // End MONITOR dynamic field statistics
(PID.TID 0000.0001) // =======================================================
(PID.TID 0000.0001) // =======================================================
(PID.TID 0000.0001) // Begin OBCS MONITOR field statistics
(PID.TID 0000.0001) // =======================================================
(PID.TID 0000.0001) %MON obc_N_vVel_max               =   1.4741709090696E-05
(PID.TID 0000.0001) %MON obc_N_vVel_min               =   1.4741709090696E-05
(PID.TID 0000.0001) %MON obc_N_vVel_mean              =   1.4741709090696E-05
(PID.TID 0000.0001) %MON obc_N_vVel_sd                =  -3.4638188150658E-24
(PID.TID 0000.0001) %MON obc_N_vVel_Int               =   9.7295279998596E+02
(PID.TID 0000.0001) // =======================================================
(PID.TID 0000.0001) // End OBCS MONITOR field statistics
(PID.TID 0000.0001) // =======================================================
 cg2d: Sum(rhs),rhsMax =   4.50688270209749E+00  2.99899819066733E+02
(PID.TID 0000.0001)      cg2d_init_res =   5.93383728740832E-06
(PID.TID 0000.0001)      cg2d_iters(min,last) =      -1      78
(PID.TID 0000.0001)      cg2d_last_res =   7.73186357382049E-12
(PID.TID 0000.0001) // =======================================================
(PID.TID 0000.0001) // Begin MONITOR dynamic field statistics
(PID.TID 0000.0001) // =======================================================
(PID.TID 0000.0001) %MON time_tsnumber                =                   597
(PID.TID 0000.0001) %MON time_secondsf                =   5.9700000000000E+04
(PID.TID 0000.0001) %MON dynstat_eta_max              =   5.7990663446313E+00
(PID.TID 0000.0001) %MON dynstat_eta_min              =  -1.4189698726387E+01
(PID.TID 0000.0001) %MON dynstat_eta_mean             =  -2.5029876053963E+00
(PID.TID 0000.0001) %MON dynstat_eta_sd               =   4.9495880201512E+00
(PID.TID 0000.0001) %MON dynstat_eta_del2             =   2.0714222644228E-01
(PID.TID 0000.0001) %MON dynstat_uvel_max             =   1.6717848346226E-03
(PID.TID 0000.0001) %MON dynstat_uvel_min             =  -6.5833653375860E-03
(PID.TID 0000.0001) %MON dynstat_uvel_mean            =  -1.2030223377749E-07
(PID.TID 0000.0001) %MON dynstat_uvel_sd              =   2.3434045575685E-04
(PID.TID 0000.0001) %MON dynstat_uvel_del2            =   3.9586490114474E-07
(PID.TID 0000.0001) %MON dynstat_vvel_max             =   5.7016438549615E-03
(PID.TID 0000.0001) %MON dynstat_vvel_min             =  -2.8313661511952E-03
(PID.TID 0000.0001) %MON dynstat_vvel_mean            =   1.4971198853898E-05
(PID.TID 0000.0001) %MON dynstat_vvel_sd              =   1.7708018547959E-04
(PID.TID 0000.0001) %MON dynstat_vvel_del2            =   3.8402005067146E-07
(PID.TID 0000.0001) %MON dynstat_wvel_max             =   2.1503770556393E-04
(PID.TID 0000.0001) %MON dynstat_wvel_min             =  -2.4434238695904E-04
(PID.TID 0000.0001) %MON dynstat_wvel_mean            =   6.5929611993255E-09
(PID.TID 0000.0001) %MON dynstat_wvel_sd              =   1.8889195692055E-05
(PID.TID 0000.0001) %MON dynstat_wvel_del2            =   8.3827257527198E-08
(PID.TID 0000.0001) %MON dynstat_theta_max            =   1.2000000000000E+00
(PID.TID 0000.0001) %MON dynstat_theta_min            =  -1.0000000000000E+00
(PID.TID 0000.0001) %MON dynstat_theta_mean           =   5.6898904920649E-01
(PID.TID 0000.0001) %MON dynstat_theta_sd             =   8.6852344680028E-01
(PID.TID 0000.0001) %MON dynstat_theta_del2           =   1.2793540155912E-06
(PID.TID 0000.0001) %MON dynstat_salt_max             =   3.4700000000000E+01
(PID.TID 0000.0001) %MON dynstat_salt_min             =   3.4000000000000E+01
(PID.TID 0000.0001) %MON dynstat_salt_mean            =   3.4499209762399E+01
(PID.TID 0000.0001) %MON dynstat_salt_sd              =   2.7634420773749E-01
(PID.TID 0000.0001) %MON dynstat_salt_del2            =   4.7254319759526E-07
(PID.TID 0000.0001) %MON advcfl_uvel_max              =   6.5833653375860E-04
(PID.TID 0000.0001) %MON advcfl_vvel_max              =   5.7016438549615E-04
(PID.TID 0000.0001) %MON advcfl_wvel_max              =   1.2217119347952E-03
(PID.TID 0000.0001) %MON advcfl_W_hf_max              =   1.2217119347952E-03
(PID.TID 0000.0001) %MON pe_b_mean                    =  -8.2964784028504E-01
(PID.TID 0000.0001) %MON ke_max                       =   1.3210747346679E-05
(PID.TID 0000.0001) %MON ke_mean                      =   4.2702287239309E-08
(PID.TID 0000.0001) %MON ke_vol                       =   4.2725123325941E+12
(PID.TID 0000.0001) // =======================================================
(PID.TID 0000.0001) // End MONITOR dynamic field statistics
(PID.TID 0000.0001) // =======================================================
(PID.TID 0000.0001) // =======================================================
(PID.TID 0000.0001) // Begin OBCS MONITOR field statistics
(PID.TID 0000.0001) // =======================================================
(PID.TID 0000.0001) %MON obc_N_vVel_max               =   1.4739237507715E-05
(PID.TID 0000.0001) %MON obc_N_vVel_min               =   1.4739237507715E-05
(PID.TID 0000.0001) %MON obc_N_vVel_mean              =   1.4739237507715E-05
(PID.TID 0000.0001) %MON obc_N_vVel_sd                =   2.9645900236586E-12
(PID.TID 0000.0001) %MON obc_N_vVel_Int               =   9.7278967550917E+02
(PID.TID 0000.0001) // =======================================================
(PID.TID 0000.0001) // End OBCS MONITOR field statistics
(PID.TID 0000.0001) // =======================================================
 cg2d: Sum(rhs),rhsMax =   4.50690548520725E+00  2.99899895198092E+02
(PID.TID 0000.0001)      cg2d_init_res =   5.90419558234893E-06
(PID.TID 0000.0001)      cg2d_iters(min,last) =      -1      78
(PID.TID 0000.0001)      cg2d_last_res =   7.76812565652662E-12
(PID.TID 0000.0001) // =======================================================
(PID.TID 0000.0001) // Begin MONITOR dynamic field statistics
(PID.TID 0000.0001) // =======================================================
(PID.TID 0000.0001) %MON time_tsnumber                =                   598
(PID.TID 0000.0001) %MON time_secondsf                =   5.9800000000000E+04
(PID.TID 0000.0001) %MON dynstat_eta_max              =   5.7990532164679E+00
(PID.TID 0000.0001) %MON dynstat_eta_min              =  -1.4189723361598E+01
(PID.TID 0000.0001) %MON dynstat_eta_mean             =  -2.5030008938544E+00
(PID.TID 0000.0001) %MON dynstat_eta_sd               =   4.9495924446236E+00
(PID.TID 0000.0001) %MON dynstat_eta_del2             =   2.0714223724163E-01
(PID.TID 0000.0001) %MON dynstat_uvel_max             =   1.6748878793462E-03
(PID.TID 0000.0001) %MON dynstat_uvel_min             =  -6.6026143819187E-03
(PID.TID 0000.0001) %MON dynstat_uvel_mean            =  -1.2086303434003E-07
(PID.TID 0000.0001) %MON dynstat_uvel_sd              =   2.3473943818927E-04
(PID.TID 0000.0001) %MON dynstat_uvel_del2            =   3.9665310600966E-07
(PID.TID 0000.0001) %MON dynstat_vvel_max             =   5.7153191717356E-03
(PID.TID 0000.0001) %MON dynstat_vvel_min             =  -2.8396645336528E-03
(PID.TID 0000.0001) %MON dynstat_vvel_mean            =   1.4968397507788E-05
(PID.TID 0000.0001) %MON dynstat_vvel_sd              =   1.7697378841795E-04
(PID.TID 0000.0001) %MON dynstat_vvel_del2            =   3.8243541437271E-07
(PID.TID 0000.0001) %MON dynstat_wvel_max             =   2.1589596947569E-04
(PID.TID 0000.0001) %MON dynstat_wvel_min             =  -2.4510043393114E-04
(PID.TID 0000.0001) %MON dynstat_wvel_mean            =   6.5909607833137E-09
(PID.TID 0000.0001) %MON dynstat_wvel_sd              =   1.8291507120156E-05
(PID.TID 0000.0001) %MON dynstat_wvel_del2            =   8.0666200649639E-08
(PID.TID 0000.0001) %MON dynstat_theta_max            =   1.2000000000000E+00
(PID.TID 0000.0001) %MON dynstat_theta_min            =  -1.0000000000000E+00
(PID.TID 0000.0001) %MON dynstat_theta_mean           =   5.6898868378182E-01
(PID.TID 0000.0001) %MON dynstat_theta_sd             =   8.6852324870674E-01
(PID.TID 0000.0001) %MON dynstat_theta_del2           =   1.2811597904440E-06
(PID.TID 0000.0001) %MON dynstat_salt_max             =   3.4700000000000E+01
(PID.TID 0000.0001) %MON dynstat_salt_min             =   3.4000000000000E+01
(PID.TID 0000.0001) %MON dynstat_salt_mean            =   3.4499209616260E+01
(PID.TID 0000.0001) %MON dynstat_salt_sd              =   2.7634413355068E-01
(PID.TID 0000.0001) %MON dynstat_salt_del2            =   4.7329224620312E-07
(PID.TID 0000.0001) %MON advcfl_uvel_max              =   6.6026143819187E-04
(PID.TID 0000.0001) %MON advcfl_vvel_max              =   5.7153191717356E-04
(PID.TID 0000.0001) %MON advcfl_wvel_max              =   1.2255021696557E-03
(PID.TID 0000.0001) %MON advcfl_W_hf_max              =   1.2255021696557E-03
(PID.TID 0000.0001) %MON pe_b_mean                    =  -8.2965161295248E-01
(PID.TID 0000.0001) %MON ke_max                       =   1.3286122625200E-05
(PID.TID 0000.0001) %MON ke_mean                      =   4.2775135583474E-08
(PID.TID 0000.0001) %MON ke_vol                       =   4.2725122536239E+12
(PID.TID 0000.0001) // =======================================================
(PID.TID 0000.0001) // End MONITOR dynamic field statistics
(PID.TID 0000.0001) // =======================================================
(PID.TID 0000.0001) // =======================================================
(PID.TID 0000.0001) // Begin OBCS MONITOR field statistics
(PID.TID 0000.0001) // =======================================================
(PID.TID 0000.0001) %MON obc_N_vVel_max               =   1.4736637535390E-05
(PID.TID 0000.0001) %MON obc_N_vVel_min               =   1.4736637535389E-05
(PID.TID 0000.0001) %MON obc_N_vVel_mean              =   1.4736637535390E-05
(PID.TID 0000.0001) %MON obc_N_vVel_sd                =   9.3748568033735E-13
(PID.TID 0000.0001) %MON obc_N_vVel_Int               =   9.7261807733572E+02
(PID.TID 0000.0001) // =======================================================
(PID.TID 0000.0001) // End OBCS MONITOR field statistics
(PID.TID 0000.0001) // =======================================================
 cg2d: Sum(rhs),rhsMax =   4.50692825711658E+00  2.99899971333761E+02
(PID.TID 0000.0001)      cg2d_init_res =   5.87741160141741E-06
(PID.TID 0000.0001)      cg2d_iters(min,last) =      -1      78
(PID.TID 0000.0001)      cg2d_last_res =   7.77405189635461E-12
(PID.TID 0000.0001) // =======================================================
(PID.TID 0000.0001) // Begin MONITOR dynamic field statistics
(PID.TID 0000.0001) // =======================================================
(PID.TID 0000.0001) %MON time_tsnumber                =                   599
(PID.TID 0000.0001) %MON time_secondsf                =   5.9900000000000E+04
(PID.TID 0000.0001) %MON dynstat_eta_max              =   5.7990401150648E+00
(PID.TID 0000.0001) %MON dynstat_eta_min              =  -1.4189747991765E+01
(PID.TID 0000.0001) %MON dynstat_eta_mean             =  -2.5030141761344E+00
(PID.TID 0000.0001) %MON dynstat_eta_sd               =   4.9495968674183E+00
(PID.TID 0000.0001) %MON dynstat_eta_del2             =   2.0714224805703E-01
(PID.TID 0000.0001) %MON dynstat_uvel_max             =   1.6779871661317E-03
(PID.TID 0000.0001) %MON dynstat_uvel_min             =  -6.6219084810371E-03
(PID.TID 0000.0001) %MON dynstat_uvel_mean            =  -1.2095243797870E-07
(PID.TID 0000.0001) %MON dynstat_uvel_sd              =   2.3513919896068E-04
(PID.TID 0000.0001) %MON dynstat_uvel_del2            =   3.9744076845127E-07
(PID.TID 0000.0001) %MON dynstat_vvel_max             =   5.7290110599366E-03
(PID.TID 0000.0001) %MON dynstat_vvel_min             =  -2.8479682588936E-03
(PID.TID 0000.0001) %MON dynstat_vvel_mean            =   1.4965677919366E-05
(PID.TID 0000.0001) %MON dynstat_vvel_sd              =   1.7691646773040E-04
(PID.TID 0000.0001) %MON dynstat_vvel_del2            =   3.8120055268087E-07
(PID.TID 0000.0001) %MON dynstat_wvel_max             =   2.1675629701154E-04
(PID.TID 0000.0001) %MON dynstat_wvel_min             =  -2.4586010160585E-04
(PID.TID 0000.0001) %MON dynstat_wvel_mean            =   6.5899725613634E-09
(PID.TID 0000.0001) %MON dynstat_wvel_sd              =   1.7778432888887E-05
(PID.TID 0000.0001) %MON dynstat_wvel_del2            =   7.7708243214877E-08
(PID.TID 0000.0001) %MON dynstat_theta_max            =   1.2000000000000E+00
(PID.TID 0000.0001) %MON dynstat_theta_min            =  -1.0000000000000E+00
(PID.TID 0000.0001) %MON dynstat_theta_mean           =   5.6898831812098E-01
(PID.TID 0000.0001) %MON dynstat_theta_sd             =   8.6852305034364E-01
(PID.TID 0000.0001) %MON dynstat_theta_del2           =   1.2827085603087E-06
(PID.TID 0000.0001) %MON dynstat_salt_max             =   3.4700000000000E+01
(PID.TID 0000.0001) %MON dynstat_salt_min             =   3.4000000000000E+01
(PID.TID 0000.0001) %MON dynstat_salt_mean            =   3.4499209470014E+01
(PID.TID 0000.0001) %MON dynstat_salt_sd              =   2.7634405925757E-01
(PID.TID 0000.0001) %MON dynstat_salt_del2            =   4.7397124634646E-07
(PID.TID 0000.0001) %MON advcfl_uvel_max              =   6.6219084810371E-04
(PID.TID 0000.0001) %MON advcfl_vvel_max              =   5.7290110599366E-04
(PID.TID 0000.0001) %MON advcfl_wvel_max              =   1.2293005080292E-03
(PID.TID 0000.0001) %MON advcfl_W_hf_max              =   1.2293005080292E-03
(PID.TID 0000.0001) %MON pe_b_mean                    =  -8.2965538373732E-01
(PID.TID 0000.0001) %MON ke_max                       =   1.3361903155901E-05
(PID.TID 0000.0001) %MON ke_mean                      =   4.2857012298108E-08
(PID.TID 0000.0001) %MON ke_vol                       =   4.2725121746905E+12
(PID.TID 0000.0001) // =======================================================
(PID.TID 0000.0001) // End MONITOR dynamic field statistics
(PID.TID 0000.0001) // =======================================================
(PID.TID 0000.0001) // =======================================================
(PID.TID 0000.0001) // Begin OBCS MONITOR field statistics
(PID.TID 0000.0001) // =======================================================
(PID.TID 0000.0001) %MON obc_N_vVel_max               =   1.4734040777353E-05
(PID.TID 0000.0001) %MON obc_N_vVel_min               =   1.4734040777352E-05
(PID.TID 0000.0001) %MON obc_N_vVel_mean              =   1.4734040777353E-05
(PID.TID 0000.0001) %MON obc_N_vVel_sd                =  -1.1037691298754E-23
(PID.TID 0000.0001) %MON obc_N_vVel_Int               =   9.7244669130527E+02
(PID.TID 0000.0001) // =======================================================
(PID.TID 0000.0001) // End OBCS MONITOR field statistics
(PID.TID 0000.0001) // =======================================================
 cg2d: Sum(rhs),rhsMax =   4.50695101802865E+00  2.99900047475768E+02
(PID.TID 0000.0001)      cg2d_init_res =   5.85515881454489E-06
(PID.TID 0000.0001)      cg2d_iters(min,last) =      -1      78
(PID.TID 0000.0001)      cg2d_last_res =   7.75607004177072E-12
(PID.TID 0000.0001) // =======================================================
(PID.TID 0000.0001) // Begin MONITOR dynamic field statistics
(PID.TID 0000.0001) // =======================================================
(PID.TID 0000.0001) %MON time_tsnumber                =                   600
(PID.TID 0000.0001) %MON time_secondsf                =   6.0000000000000E+04
(PID.TID 0000.0001) %MON dynstat_eta_max              =   5.7990270425167E+00
(PID.TID 0000.0001) %MON dynstat_eta_min              =  -1.4189772618994E+01
(PID.TID 0000.0001) %MON dynstat_eta_mean             =  -2.5030274523662E+00
(PID.TID 0000.0001) %MON dynstat_eta_sd               =   4.9496012886975E+00
(PID.TID 0000.0001) %MON dynstat_eta_del2             =   2.0714225888865E-01
(PID.TID 0000.0001) %MON dynstat_uvel_max             =   1.6810824313476E-03
(PID.TID 0000.0001) %MON dynstat_uvel_min             =  -6.6412477921833E-03
(PID.TID 0000.0001) %MON dynstat_uvel_mean            =  -1.2064321450786E-07
(PID.TID 0000.0001) %MON dynstat_uvel_sd              =   2.3553966226814E-04
(PID.TID 0000.0001) %MON dynstat_uvel_del2            =   3.9822744493536E-07
(PID.TID 0000.0001) %MON dynstat_vvel_max             =   5.7427194984507E-03
(PID.TID 0000.0001) %MON dynstat_vvel_min             =  -2.8562773385268E-03
(PID.TID 0000.0001) %MON dynstat_vvel_mean            =   1.4963128035397E-05
(PID.TID 0000.0001) %MON dynstat_vvel_sd              =   1.7692192897864E-04
(PID.TID 0000.0001) %MON dynstat_vvel_del2            =   3.8042439302278E-07
(PID.TID 0000.0001) %MON dynstat_wvel_max             =   2.1761869507963E-04
(PID.TID 0000.0001) %MON dynstat_wvel_min             =  -2.4662139520932E-04
(PID.TID 0000.0001) %MON dynstat_wvel_mean            =   6.5897306609130E-09
(PID.TID 0000.0001) %MON dynstat_wvel_sd              =   1.7387739332829E-05
(PID.TID 0000.0001) %MON dynstat_wvel_del2            =   7.5162097131220E-08
(PID.TID 0000.0001) %MON dynstat_theta_max            =   1.2000000000000E+00
(PID.TID 0000.0001) %MON dynstat_theta_min            =  -1.0000000000000E+00
(PID.TID 0000.0001) %MON dynstat_theta_mean           =   5.6898795219833E-01
(PID.TID 0000.0001) %MON dynstat_theta_sd             =   8.6852285171834E-01
(PID.TID 0000.0001) %MON dynstat_theta_del2           =   1.2838804687257E-06
(PID.TID 0000.0001) %MON dynstat_salt_max             =   3.4700000000000E+01
(PID.TID 0000.0001) %MON dynstat_salt_min             =   3.4000000000000E+01
(PID.TID 0000.0001) %MON dynstat_salt_mean            =   3.4499209323653E+01
(PID.TID 0000.0001) %MON dynstat_salt_sd              =   2.7634398486059E-01
(PID.TID 0000.0001) %MON dynstat_salt_del2            =   4.7454739942887E-07
(PID.TID 0000.0001) %MON advcfl_uvel_max              =   6.6412477921833E-04
(PID.TID 0000.0001) %MON advcfl_vvel_max              =   5.7427194984507E-04
(PID.TID 0000.0001) %MON advcfl_wvel_max              =   1.2331069760466E-03
(PID.TID 0000.0001) %MON advcfl_W_hf_max              =   1.2331069760466E-03
(PID.TID 0000.0001) %MON pe_b_mean                    =  -8.2965915268907E-01
(PID.TID 0000.0001) %MON ke_max                       =   1.3438091109462E-05
(PID.TID 0000.0001) %MON ke_mean                      =   4.2950318176082E-08
(PID.TID 0000.0001) %MON ke_vol                       =   4.2725120957938E+12
(PID.TID 0000.0001) // =======================================================
(PID.TID 0000.0001) // End MONITOR dynamic field statistics
(PID.TID 0000.0001) // =======================================================
(PID.TID 0000.0001) // =======================================================
(PID.TID 0000.0001) // Begin OBCS MONITOR field statistics
(PID.TID 0000.0001) // =======================================================
(PID.TID 0000.0001) %MON obc_N_vVel_max               =   1.4731567237715E-05
(PID.TID 0000.0001) %MON obc_N_vVel_min               =   1.4731567237715E-05
(PID.TID 0000.0001) %MON obc_N_vVel_mean              =   1.4731567237715E-05
(PID.TID 0000.0001) %MON obc_N_vVel_sd                =  -8.9438903732296E-24
(PID.TID 0000.0001) %MON obc_N_vVel_Int               =   9.7228343768917E+02
(PID.TID 0000.0001) // =======================================================
(PID.TID 0000.0001) // End OBCS MONITOR field statistics
(PID.TID 0000.0001) // =======================================================
 cg2d: Sum(rhs),rhsMax =   4.50697376834067E+00  2.99900123626142E+02
(PID.TID 0000.0001)      cg2d_init_res =   5.83884880459080E-06
(PID.TID 0000.0001)      cg2d_iters(min,last) =      -1      78
(PID.TID 0000.0001)      cg2d_last_res =   7.72426205333940E-12
(PID.TID 0000.0001) // =======================================================
(PID.TID 0000.0001) // Begin MONITOR dynamic field statistics
(PID.TID 0000.0001) // =======================================================
(PID.TID 0000.0001) %MON time_tsnumber                =                   601
(PID.TID 0000.0001) %MON time_secondsf                =   6.0100000000000E+04
(PID.TID 0000.0001) %MON dynstat_eta_max              =   5.7990140010586E+00
(PID.TID 0000.0001) %MON dynstat_eta_min              =  -1.4189797245091E+01
(PID.TID 0000.0001) %MON dynstat_eta_mean             =  -2.5030407227873E+00
(PID.TID 0000.0001) %MON dynstat_eta_sd               =   4.9496057086156E+00
(PID.TID 0000.0001) %MON dynstat_eta_del2             =   2.0714226973662E-01
(PID.TID 0000.0001) %MON dynstat_uvel_max             =   1.6841734795190E-03
(PID.TID 0000.0001) %MON dynstat_uvel_min             =  -6.6606324584146E-03
(PID.TID 0000.0001) %MON dynstat_uvel_mean            =  -1.2005223263212E-07
(PID.TID 0000.0001) %MON dynstat_uvel_sd              =   2.3594076884959E-04
(PID.TID 0000.0001) %MON dynstat_uvel_del2            =   3.9901283337811E-07
(PID.TID 0000.0001) %MON dynstat_vvel_max             =   5.7564445280658E-03
(PID.TID 0000.0001) %MON dynstat_vvel_min             =  -2.8645917749923E-03
(PID.TID 0000.0001) %MON dynstat_vvel_mean            =   1.4960821069228E-05
(PID.TID 0000.0001) %MON dynstat_vvel_sd              =   1.7699986149035E-04
(PID.TID 0000.0001) %MON dynstat_vvel_del2            =   3.8018671285995E-07
(PID.TID 0000.0001) %MON dynstat_wvel_max             =   2.1848316927537E-04
(PID.TID 0000.0001) %MON dynstat_wvel_min             =  -2.4738432160724E-04
(PID.TID 0000.0001) %MON dynstat_wvel_mean            =   6.5899769274303E-09
(PID.TID 0000.0001) %MON dynstat_wvel_sd              =   1.7149699573392E-05
(PID.TID 0000.0001) %MON dynstat_wvel_del2            =   7.3226413864877E-08
(PID.TID 0000.0001) %MON dynstat_theta_max            =   1.2000000000000E+00
(PID.TID 0000.0001) %MON dynstat_theta_min            =  -1.0000000000000E+00
(PID.TID 0000.0001) %MON dynstat_theta_mean           =   5.6898758598583E-01
(PID.TID 0000.0001) %MON dynstat_theta_sd             =   8.6852265282550E-01
(PID.TID 0000.0001) %MON dynstat_theta_del2           =   1.2845860067611E-06
(PID.TID 0000.0001) %MON dynstat_salt_max             =   3.4700000000000E+01
(PID.TID 0000.0001) %MON dynstat_salt_min             =   3.4000000000000E+01
(PID.TID 0000.0001) %MON dynstat_salt_mean            =   3.4499209177166E+01
(PID.TID 0000.0001) %MON dynstat_salt_sd              =   2.7634391035804E-01
(PID.TID 0000.0001) %MON dynstat_salt_del2            =   4.7499632168403E-07
(PID.TID 0000.0001) %MON advcfl_uvel_max              =   6.6606324584146E-04
(PID.TID 0000.0001) %MON advcfl_vvel_max              =   5.7564445280658E-04
(PID.TID 0000.0001) %MON advcfl_wvel_max              =   1.2369216080362E-03
(PID.TID 0000.0001) %MON advcfl_W_hf_max              =   1.2369216080362E-03
(PID.TID 0000.0001) %MON pe_b_mean                    =  -8.2966291987376E-01
(PID.TID 0000.0001) %MON ke_max                       =   1.3514688636237E-05
(PID.TID 0000.0001) %MON ke_mean                      =   4.3056757276660E-08
(PID.TID 0000.0001) %MON ke_vol                       =   4.2725120169329E+12
(PID.TID 0000.0001) // =======================================================
(PID.TID 0000.0001) // End MONITOR dynamic field statistics
(PID.TID 0000.0001) // =======================================================
(PID.TID 0000.0001) // =======================================================
(PID.TID 0000.0001) // Begin OBCS MONITOR field statistics
(PID.TID 0000.0001) // =======================================================
(PID.TID 0000.0001) %MON obc_N_vVel_max               =   1.4729312680843E-05
(PID.TID 0000.0001) %MON obc_N_vVel_min               =   1.4729312680843E-05
(PID.TID 0000.0001) %MON obc_N_vVel_mean              =   1.4729312680843E-05
(PID.TID 0000.0001) %MON obc_N_vVel_sd                =   3.8250172659129E-12
(PID.TID 0000.0001) %MON obc_N_vVel_Int               =   9.7213463693562E+02
(PID.TID 0000.0001) // =======================================================
(PID.TID 0000.0001) // End OBCS MONITOR field statistics
(PID.TID 0000.0001) // =======================================================
 cg2d: Sum(rhs),rhsMax =   4.50699650857968E+00  2.99900199787022E+02
(PID.TID 0000.0001)      cg2d_init_res =   5.82952630081498E-06
(PID.TID 0000.0001)      cg2d_iters(min,last) =      -1      78
(PID.TID 0000.0001)      cg2d_last_res =   7.68989135493182E-12
(PID.TID 0000.0001) // =======================================================
(PID.TID 0000.0001) // Begin MONITOR dynamic field statistics
(PID.TID 0000.0001) // =======================================================
(PID.TID 0000.0001) %MON time_tsnumber                =                   602
(PID.TID 0000.0001) %MON time_secondsf                =   6.0200000000000E+04
(PID.TID 0000.0001) %MON dynstat_eta_max              =   5.7990009927003E+00
(PID.TID 0000.0001) %MON dynstat_eta_min              =  -1.4189821871674E+01
(PID.TID 0000.0001) %MON dynstat_eta_mean             =  -2.5030539877083E+00
(PID.TID 0000.0001) %MON dynstat_eta_sd               =   4.9496101273159E+00
(PID.TID 0000.0001) %MON dynstat_eta_del2             =   2.0714228060121E-01
(PID.TID 0000.0001) %MON dynstat_uvel_max             =   1.6872601831199E-03
(PID.TID 0000.0001) %MON dynstat_uvel_min             =  -6.6800626080941E-03
(PID.TID 0000.0001) %MON dynstat_uvel_mean            =  -1.1931197125242E-07
(PID.TID 0000.0001) %MON dynstat_uvel_sd              =   2.3634247715846E-04
(PID.TID 0000.0001) %MON dynstat_uvel_del2            =   3.9979677864829E-07
(PID.TID 0000.0001) %MON dynstat_vvel_max             =   5.7701862462425E-03
(PID.TID 0000.0001) %MON dynstat_vvel_min             =  -2.8729115647534E-03
(PID.TID 0000.0001) %MON dynstat_vvel_mean            =   1.4958812015153E-05
(PID.TID 0000.0001) %MON dynstat_vvel_sd              =   1.7715533238934E-04
(PID.TID 0000.0001) %MON dynstat_vvel_del2            =   3.8053179878799E-07
(PID.TID 0000.0001) %MON dynstat_wvel_max             =   2.1934972389658E-04
(PID.TID 0000.0001) %MON dynstat_wvel_min             =  -2.4814888888043E-04
(PID.TID 0000.0001) %MON dynstat_wvel_mean            =   6.5905090367089E-09
(PID.TID 0000.0001) %MON dynstat_wvel_sd              =   1.7082503760605E-05
(PID.TID 0000.0001) %MON dynstat_wvel_del2            =   7.2063684585776E-08
(PID.TID 0000.0001) %MON dynstat_theta_max            =   1.2000000000000E+00
(PID.TID 0000.0001) %MON dynstat_theta_min            =  -1.0000000000000E+00
(PID.TID 0000.0001) %MON dynstat_theta_mean           =   5.6898721945330E-01
(PID.TID 0000.0001) %MON dynstat_theta_sd             =   8.6852245365057E-01
(PID.TID 0000.0001) %MON dynstat_theta_del2           =   1.2847714144586E-06
(PID.TID 0000.0001) %MON dynstat_salt_max             =   3.4700000000000E+01
(PID.TID 0000.0001) %MON dynstat_salt_min             =   3.4000000000000E+01
(PID.TID 0000.0001) %MON dynstat_salt_mean            =   3.4499209030545E+01
(PID.TID 0000.0001) %MON dynstat_salt_sd              =   2.7634383574532E-01
(PID.TID 0000.0001) %MON dynstat_salt_del2            =   4.7530343794765E-07
(PID.TID 0000.0001) %MON advcfl_uvel_max              =   6.6800626080941E-04
(PID.TID 0000.0001) %MON advcfl_vvel_max              =   5.7701862462425E-04
(PID.TID 0000.0001) %MON advcfl_wvel_max              =   1.2407444444021E-03
(PID.TID 0000.0001) %MON advcfl_W_hf_max              =   1.2407444444021E-03
(PID.TID 0000.0001) %MON pe_b_mean                    =  -8.2966668536789E-01
(PID.TID 0000.0001) %MON ke_max                       =   1.3591697857142E-05
(PID.TID 0000.0001) %MON ke_mean                      =   4.3177236081783E-08
(PID.TID 0000.0001) %MON ke_vol                       =   4.2725119381066E+12
(PID.TID 0000.0001) // =======================================================
(PID.TID 0000.0001) // End MONITOR dynamic field statistics
(PID.TID 0000.0001) // =======================================================
(PID.TID 0000.0001) // =======================================================
(PID.TID 0000.0001) // Begin OBCS MONITOR field statistics
(PID.TID 0000.0001) // =======================================================
(PID.TID 0000.0001) %MON obc_N_vVel_max               =   1.4727343471146E-05
(PID.TID 0000.0001) %MON obc_N_vVel_min               =   1.4727343471146E-05
(PID.TID 0000.0001) %MON obc_N_vVel_mean              =   1.4727343471146E-05
(PID.TID 0000.0001) %MON obc_N_vVel_sd                =   4.1084856547042E-12
(PID.TID 0000.0001) %MON obc_N_vVel_Int               =   9.7200466909563E+02
(PID.TID 0000.0001) // =======================================================
(PID.TID 0000.0001) // End OBCS MONITOR field statistics
(PID.TID 0000.0001) // =======================================================
 cg2d: Sum(rhs),rhsMax =   4.50701923934252E+00  2.99900275960683E+02
(PID.TID 0000.0001)      cg2d_init_res =   5.82778931945079E-06
(PID.TID 0000.0001)      cg2d_iters(min,last) =      -1      78
(PID.TID 0000.0001)      cg2d_last_res =   7.66226204954655E-12
(PID.TID 0000.0001) // =======================================================
(PID.TID 0000.0001) // Begin MONITOR dynamic field statistics
(PID.TID 0000.0001) // =======================================================
(PID.TID 0000.0001) %MON time_tsnumber                =                   603
(PID.TID 0000.0001) %MON time_secondsf                =   6.0300000000000E+04
(PID.TID 0000.0001) %MON dynstat_eta_max              =   5.7989880187265E+00
(PID.TID 0000.0001) %MON dynstat_eta_min              =  -1.4189846500122E+01
(PID.TID 0000.0001) %MON dynstat_eta_mean             =  -2.5030672474795E+00
(PID.TID 0000.0001) %MON dynstat_eta_sd               =   4.9496145449235E+00
(PID.TID 0000.0001) %MON dynstat_eta_del2             =   2.0714229148240E-01
(PID.TID 0000.0001) %MON dynstat_uvel_max             =   1.6903424437491E-03
(PID.TID 0000.0001) %MON dynstat_uvel_min             =  -6.6995383605057E-03
(PID.TID 0000.0001) %MON dynstat_uvel_mean            =  -1.1854642087947E-07
(PID.TID 0000.0001) %MON dynstat_uvel_sd              =   2.3674476390259E-04
(PID.TID 0000.0001) %MON dynstat_uvel_del2            =   4.0057927028891E-07
(PID.TID 0000.0001) %MON dynstat_vvel_max             =   5.7839447953620E-03
(PID.TID 0000.0001) %MON dynstat_vvel_min             =  -2.8812367046340E-03
(PID.TID 0000.0001) %MON dynstat_vvel_mean            =   1.4957137451173E-05
(PID.TID 0000.0001) %MON dynstat_vvel_sd              =   1.7738849075155E-04
(PID.TID 0000.0001) %MON dynstat_vvel_del2            =   3.8146479408970E-07
(PID.TID 0000.0001) %MON dynstat_wvel_max             =   2.2021836219041E-04
(PID.TID 0000.0001) %MON dynstat_wvel_min             =  -2.4891510542138E-04
(PID.TID 0000.0001) %MON dynstat_wvel_mean            =   6.5912090574919E-09
(PID.TID 0000.0001) %MON dynstat_wvel_sd              =   1.7189055818700E-05
(PID.TID 0000.0001) %MON dynstat_wvel_del2            =   7.1772542714364E-08
(PID.TID 0000.0001) %MON dynstat_theta_max            =   1.2000000000000E+00
(PID.TID 0000.0001) %MON dynstat_theta_min            =  -1.0000000000000E+00
(PID.TID 0000.0001) %MON dynstat_theta_mean           =   5.6898685256869E-01
(PID.TID 0000.0001) %MON dynstat_theta_sd             =   8.6852225419122E-01
(PID.TID 0000.0001) %MON dynstat_theta_del2           =   1.2844214574141E-06
(PID.TID 0000.0001) %MON dynstat_salt_max             =   3.4700000000000E+01
(PID.TID 0000.0001) %MON dynstat_salt_min             =   3.4000000000000E+01
(PID.TID 0000.0001) %MON dynstat_salt_mean            =   3.4499208883780E+01
(PID.TID 0000.0001) %MON dynstat_salt_sd              =   2.7634376102163E-01
(PID.TID 0000.0001) %MON dynstat_salt_del2            =   4.7546481483458E-07
(PID.TID 0000.0001) %MON advcfl_uvel_max              =   6.6995383605057E-04
(PID.TID 0000.0001) %MON advcfl_vvel_max              =   5.7839447953620E-04
(PID.TID 0000.0001) %MON advcfl_wvel_max              =   1.2445755271069E-03
(PID.TID 0000.0001) %MON advcfl_W_hf_max              =   1.2445755271069E-03
(PID.TID 0000.0001) %MON pe_b_mean                    =  -8.2967044925328E-01
(PID.TID 0000.0001) %MON ke_max                       =   1.3669120868406E-05
(PID.TID 0000.0001) %MON ke_mean                      =   4.3311813056661E-08
(PID.TID 0000.0001) %MON ke_vol                       =   4.2725118593130E+12
(PID.TID 0000.0001) // =======================================================
(PID.TID 0000.0001) // End MONITOR dynamic field statistics
(PID.TID 0000.0001) // =======================================================
(PID.TID 0000.0001) // =======================================================
(PID.TID 0000.0001) // Begin OBCS MONITOR field statistics
(PID.TID 0000.0001) // =======================================================
(PID.TID 0000.0001) %MON obc_N_vVel_max               =   1.4725697303470E-05
(PID.TID 0000.0001) %MON obc_N_vVel_min               =   1.4725697303469E-05
(PID.TID 0000.0001) %MON obc_N_vVel_mean              =   1.4725697303470E-05
(PID.TID 0000.0001) %MON obc_N_vVel_sd                =  -1.9335346818427E-23
(PID.TID 0000.0001) %MON obc_N_vVel_Int               =   9.7189602202901E+02
(PID.TID 0000.0001) // =======================================================
(PID.TID 0000.0001) // End OBCS MONITOR field statistics
(PID.TID 0000.0001) // =======================================================
 cg2d: Sum(rhs),rhsMax =   4.50704196124947E+00  2.99900352149440E+02
(PID.TID 0000.0001)      cg2d_init_res =   5.83374071395130E-06
(PID.TID 0000.0001)      cg2d_iters(min,last) =      -1      78
(PID.TID 0000.0001)      cg2d_last_res =   7.64718945857317E-12
(PID.TID 0000.0001) // =======================================================
(PID.TID 0000.0001) // Begin MONITOR dynamic field statistics
(PID.TID 0000.0001) // =======================================================
(PID.TID 0000.0001) %MON time_tsnumber                =                   604
(PID.TID 0000.0001) %MON time_secondsf                =   6.0400000000000E+04
(PID.TID 0000.0001) %MON dynstat_eta_max              =   5.7989750794557E+00
(PID.TID 0000.0001) %MON dynstat_eta_min              =  -1.4189871131468E+01
(PID.TID 0000.0001) %MON dynstat_eta_mean             =  -2.5030805024648E+00
(PID.TID 0000.0001) %MON dynstat_eta_sd               =   4.9496189615479E+00
(PID.TID 0000.0001) %MON dynstat_eta_del2             =   2.0714230238007E-01
(PID.TID 0000.0001) %MON dynstat_uvel_max             =   1.6934201472276E-03
(PID.TID 0000.0001) %MON dynstat_uvel_min             =  -6.7190598329248E-03
(PID.TID 0000.0001) %MON dynstat_uvel_mean            =  -1.1785456603735E-07
(PID.TID 0000.0001) %MON dynstat_uvel_sd              =   2.3714762398788E-04
(PID.TID 0000.0001) %MON dynstat_uvel_del2            =   4.0136043288950E-07
(PID.TID 0000.0001) %MON dynstat_vvel_max             =   5.7977203470125E-03
(PID.TID 0000.0001) %MON dynstat_vvel_min             =  -2.8895671989435E-03
(PID.TID 0000.0001) %MON dynstat_vvel_mean            =   1.4955817850847E-05
(PID.TID 0000.0001) %MON dynstat_vvel_sd              =   1.7769460525572E-04
(PID.TID 0000.0001) %MON dynstat_vvel_del2            =   3.8295120778223E-07
(PID.TID 0000.0001) %MON dynstat_wvel_max             =   2.2108908683745E-04
(PID.TID 0000.0001) %MON dynstat_wvel_min             =  -2.4968297885401E-04
(PID.TID 0000.0001) %MON dynstat_wvel_mean            =   6.5920494296016E-09
(PID.TID 0000.0001) %MON dynstat_wvel_sd              =   1.7456370875296E-05
(PID.TID 0000.0001) %MON dynstat_wvel_del2            =   7.2367697819696E-08
(PID.TID 0000.0001) %MON dynstat_theta_max            =   1.2000000000000E+00
(PID.TID 0000.0001) %MON dynstat_theta_min            =  -1.0000000000000E+00
(PID.TID 0000.0001) %MON dynstat_theta_mean           =   5.6898648529861E-01
(PID.TID 0000.0001) %MON dynstat_theta_sd             =   8.6852205445131E-01
(PID.TID 0000.0001) %MON dynstat_theta_del2           =   1.2835614254452E-06
(PID.TID 0000.0001) %MON dynstat_salt_max             =   3.4700000000000E+01
(PID.TID 0000.0001) %MON dynstat_salt_min             =   3.4000000000000E+01
(PID.TID 0000.0001) %MON dynstat_salt_mean            =   3.4499208736859E+01
(PID.TID 0000.0001) %MON dynstat_salt_sd              =   2.7634368618793E-01
(PID.TID 0000.0001) %MON dynstat_salt_del2            =   4.7548763589342E-07
(PID.TID 0000.0001) %MON advcfl_uvel_max              =   6.7190598329248E-04
(PID.TID 0000.0001) %MON advcfl_vvel_max              =   5.7977203470125E-04
(PID.TID 0000.0001) %MON advcfl_wvel_max              =   1.2484148942700E-03
(PID.TID 0000.0001) %MON advcfl_W_hf_max              =   1.2484148942700E-03
(PID.TID 0000.0001) %MON pe_b_mean                    =  -8.2967421161389E-01
(PID.TID 0000.0001) %MON ke_max                       =   1.3746959750738E-05
(PID.TID 0000.0001) %MON ke_mean                      =   4.3459701683975E-08
(PID.TID 0000.0001) %MON ke_vol                       =   4.2725117805500E+12
(PID.TID 0000.0001) // =======================================================
(PID.TID 0000.0001) // End MONITOR dynamic field statistics
(PID.TID 0000.0001) // =======================================================
(PID.TID 0000.0001) // =======================================================
(PID.TID 0000.0001) // Begin OBCS MONITOR field statistics
(PID.TID 0000.0001) // =======================================================
(PID.TID 0000.0001) %MON obc_N_vVel_max               =   1.4724387887776E-05
(PID.TID 0000.0001) %MON obc_N_vVel_min               =   1.4724387887775E-05
(PID.TID 0000.0001) %MON obc_N_vVel_mean              =   1.4724387887776E-05
(PID.TID 0000.0001) %MON obc_N_vVel_sd                =  -4.9630836753182E-24
(PID.TID 0000.0001) %MON obc_N_vVel_Int               =   9.7180960059320E+02
(PID.TID 0000.0001) // =======================================================
(PID.TID 0000.0001) // End OBCS MONITOR field statistics
(PID.TID 0000.0001) // =======================================================
 cg2d: Sum(rhs),rhsMax =   4.50706467491465E+00  2.99900428355511E+02
(PID.TID 0000.0001)      cg2d_init_res =   5.84694785784122E-06
(PID.TID 0000.0001)      cg2d_iters(min,last) =      -1      78
(PID.TID 0000.0001)      cg2d_last_res =   7.64613779148368E-12
(PID.TID 0000.0001) // =======================================================
(PID.TID 0000.0001) // Begin MONITOR dynamic field statistics
(PID.TID 0000.0001) // =======================================================
(PID.TID 0000.0001) %MON time_tsnumber                =                   605
(PID.TID 0000.0001) %MON time_secondsf                =   6.0500000000000E+04
(PID.TID 0000.0001) %MON dynstat_eta_max              =   5.7989621741676E+00
(PID.TID 0000.0001) %MON dynstat_eta_min              =  -1.4189895766311E+01
(PID.TID 0000.0001) %MON dynstat_eta_mean             =  -2.5030937530239E+00
(PID.TID 0000.0001) %MON dynstat_eta_sd               =   4.9496233772915E+00
(PID.TID 0000.0001) %MON dynstat_eta_del2             =   2.0714231329450E-01
(PID.TID 0000.0001) %MON dynstat_uvel_max             =   1.6964931367964E-03
(PID.TID 0000.0001) %MON dynstat_uvel_min             =  -6.7386271451726E-03
(PID.TID 0000.0001) %MON dynstat_uvel_mean            =  -1.1730245878515E-07
(PID.TID 0000.0001) %MON dynstat_uvel_sd              =   2.3755106996327E-04
(PID.TID 0000.0001) %MON dynstat_uvel_del2            =   4.0214051048225E-07
(PID.TID 0000.0001) %MON dynstat_vvel_max             =   5.8115130846392E-03
(PID.TID 0000.0001) %MON dynstat_vvel_min             =  -2.8979030636842E-03
(PID.TID 0000.0001) %MON dynstat_vvel_mean            =   1.4954861145774E-05
(PID.TID 0000.0001) %MON dynstat_vvel_sd              =   1.7806443120423E-04
(PID.TID 0000.0001) %MON dynstat_vvel_del2            =   3.8491965821469E-07
(PID.TID 0000.0001) %MON dynstat_wvel_max             =   2.2196190045743E-04
(PID.TID 0000.0001) %MON dynstat_wvel_min             =  -2.5045251533271E-04
(PID.TID 0000.0001) %MON dynstat_wvel_mean            =   6.5930799105339E-09
(PID.TID 0000.0001) %MON dynstat_wvel_sd              =   1.7857837049651E-05
(PID.TID 0000.0001) %MON dynstat_wvel_del2            =   7.3776103385009E-08
(PID.TID 0000.0001) %MON dynstat_theta_max            =   1.2000000000000E+00
(PID.TID 0000.0001) %MON dynstat_theta_min            =  -1.0000000000000E+00
(PID.TID 0000.0001) %MON dynstat_theta_mean           =   5.6898611760905E-01
(PID.TID 0000.0001) %MON dynstat_theta_sd             =   8.6852185441090E-01
(PID.TID 0000.0001) %MON dynstat_theta_del2           =   1.2822559138964E-06
(PID.TID 0000.0001) %MON dynstat_salt_max             =   3.4700000000000E+01
(PID.TID 0000.0001) %MON dynstat_salt_min             =   3.4000000000000E+01
(PID.TID 0000.0001) %MON dynstat_salt_mean            =   3.4499208589771E+01
(PID.TID 0000.0001) %MON dynstat_salt_sd              =   2.7634361123823E-01
(PID.TID 0000.0001) %MON dynstat_salt_del2            =   4.7538971559242E-07
(PID.TID 0000.0001) %MON advcfl_uvel_max              =   6.7386271451726E-04
(PID.TID 0000.0001) %MON advcfl_vvel_max              =   5.8115130846392E-04
(PID.TID 0000.0001) %MON advcfl_wvel_max              =   1.2522625766636E-03
(PID.TID 0000.0001) %MON advcfl_W_hf_max              =   1.2522625766636E-03
(PID.TID 0000.0001) %MON pe_b_mean                    =  -8.2967797253457E-01
(PID.TID 0000.0001) %MON ke_max                       =   1.3825216575615E-05
(PID.TID 0000.0001) %MON ke_mean                      =   4.3619326633077E-08
(PID.TID 0000.0001) %MON ke_vol                       =   4.2725117018154E+12
(PID.TID 0000.0001) // =======================================================
(PID.TID 0000.0001) // End MONITOR dynamic field statistics
(PID.TID 0000.0001) // =======================================================
(PID.TID 0000.0001) // =======================================================
(PID.TID 0000.0001) // Begin OBCS MONITOR field statistics
(PID.TID 0000.0001) // =======================================================
(PID.TID 0000.0001) %MON obc_N_vVel_max               =   1.4723411589724E-05
(PID.TID 0000.0001) %MON obc_N_vVel_min               =   1.4723411589724E-05
(PID.TID 0000.0001) %MON obc_N_vVel_mean              =   1.4723411589724E-05
(PID.TID 0000.0001) %MON obc_N_vVel_sd                =  -4.3426982159034E-24
(PID.TID 0000.0001) %MON obc_N_vVel_Int               =   9.7174516492180E+02
(PID.TID 0000.0001) // =======================================================
(PID.TID 0000.0001) // End OBCS MONITOR field statistics
(PID.TID 0000.0001) // =======================================================
 cg2d: Sum(rhs),rhsMax =   4.50708738092664E+00  2.99900504580776E+02
(PID.TID 0000.0001)      cg2d_init_res =   5.86649865250313E-06
(PID.TID 0000.0001)      cg2d_iters(min,last) =      -1      78
(PID.TID 0000.0001)      cg2d_last_res =   7.65770189900303E-12
(PID.TID 0000.0001) // =======================================================
(PID.TID 0000.0001) // Begin MONITOR dynamic field statistics
(PID.TID 0000.0001) // =======================================================
(PID.TID 0000.0001) %MON time_tsnumber                =                   606
(PID.TID 0000.0001) %MON time_secondsf                =   6.0600000000000E+04
(PID.TID 0000.0001) %MON dynstat_eta_max              =   5.7989493012181E+00
(PID.TID 0000.0001) %MON dynstat_eta_min              =  -1.4189920404729E+01
(PID.TID 0000.0001) %MON dynstat_eta_mean             =  -2.5031069994992E+00
(PID.TID 0000.0001) %MON dynstat_eta_sd               =   4.9496277922415E+00
(PID.TID 0000.0001) %MON dynstat_eta_del2             =   2.0714232422585E-01
(PID.TID 0000.0001) %MON dynstat_uvel_max             =   1.6995612151889E-03
(PID.TID 0000.0001) %MON dynstat_uvel_min             =  -6.7582404204654E-03
(PID.TID 0000.0001) %MON dynstat_uvel_mean            =  -1.1692295540135E-07
(PID.TID 0000.0001) %MON dynstat_uvel_sd              =   2.3795513092438E-04
(PID.TID 0000.0001) %MON dynstat_uvel_del2            =   4.0291984443825E-07
(PID.TID 0000.0001) %MON dynstat_vvel_max             =   5.8253231862722E-03
(PID.TID 0000.0001) %MON dynstat_vvel_min             =  -2.9062443264722E-03
(PID.TID 0000.0001) %MON dynstat_vvel_mean            =   1.4954266317057E-05
(PID.TID 0000.0001) %MON dynstat_vvel_sd              =   1.7848487624564E-04
(PID.TID 0000.0001) %MON dynstat_vvel_del2            =   3.8726751029508E-07
(PID.TID 0000.0001) %MON dynstat_wvel_max             =   2.2283680607510E-04
(PID.TID 0000.0001) %MON dynstat_wvel_min             =  -2.5122371961611E-04
(PID.TID 0000.0001) %MON dynstat_wvel_mean            =   6.5943986798692E-09
(PID.TID 0000.0001) %MON dynstat_wvel_sd              =   1.8357467434046E-05
(PID.TID 0000.0001) %MON dynstat_wvel_del2            =   7.5851214419337E-08
(PID.TID 0000.0001) %MON dynstat_theta_max            =   1.2000000000000E+00
(PID.TID 0000.0001) %MON dynstat_theta_min            =  -1.0000000000000E+00
(PID.TID 0000.0001) %MON dynstat_theta_mean           =   5.6898574946571E-01
(PID.TID 0000.0001) %MON dynstat_theta_sd             =   8.6852165403817E-01
(PID.TID 0000.0001) %MON dynstat_theta_del2           =   1.2806047625265E-06
(PID.TID 0000.0001) %MON dynstat_salt_max             =   3.4700000000000E+01
(PID.TID 0000.0001) %MON dynstat_salt_min             =   3.4000000000000E+01
(PID.TID 0000.0001) %MON dynstat_salt_mean            =   3.4499208442507E+01
(PID.TID 0000.0001) %MON dynstat_salt_sd              =   2.7634353616196E-01
(PID.TID 0000.0001) %MON dynstat_salt_del2            =   4.7519871186430E-07
(PID.TID 0000.0001) %MON advcfl_uvel_max              =   6.7582404204654E-04
(PID.TID 0000.0001) %MON advcfl_vvel_max              =   5.8253231862722E-04
(PID.TID 0000.0001) %MON advcfl_wvel_max              =   1.2561185980806E-03
(PID.TID 0000.0001) %MON advcfl_W_hf_max              =   1.2561185980806E-03
(PID.TID 0000.0001) %MON pe_b_mean                    =  -8.2968173209912E-01
(PID.TID 0000.0001) %MON ke_max                       =   1.3903893408514E-05
(PID.TID 0000.0001) %MON ke_mean                      =   4.3788429387721E-08
(PID.TID 0000.0001) %MON ke_vol                       =   4.2725116231070E+12
(PID.TID 0000.0001) // =======================================================
(PID.TID 0000.0001) // End MONITOR dynamic field statistics
(PID.TID 0000.0001) // =======================================================
(PID.TID 0000.0001) // =======================================================
(PID.TID 0000.0001) // Begin OBCS MONITOR field statistics
(PID.TID 0000.0001) // =======================================================
(PID.TID 0000.0001) %MON obc_N_vVel_max               =   1.4722754442440E-05
(PID.TID 0000.0001) %MON obc_N_vVel_min               =   1.4722754442440E-05
(PID.TID 0000.0001) %MON obc_N_vVel_mean              =   1.4722754442440E-05
(PID.TID 0000.0001) %MON obc_N_vVel_sd                =   1.6785660432371E-12
(PID.TID 0000.0001) %MON obc_N_vVel_Int               =   9.7170179320102E+02
(PID.TID 0000.0001) // =======================================================
(PID.TID 0000.0001) // End OBCS MONITOR field statistics
(PID.TID 0000.0001) // =======================================================
 cg2d: Sum(rhs),rhsMax =   4.50711007984509E+00  2.99900580826855E+02
(PID.TID 0000.0001)      cg2d_init_res =   5.89107700877369E-06
(PID.TID 0000.0001)      cg2d_iters(min,last) =      -1      78
(PID.TID 0000.0001)      cg2d_last_res =   7.67825116094328E-12
(PID.TID 0000.0001) // =======================================================
(PID.TID 0000.0001) // Begin MONITOR dynamic field statistics
(PID.TID 0000.0001) // =======================================================
(PID.TID 0000.0001) %MON time_tsnumber                =                   607
(PID.TID 0000.0001) %MON time_secondsf                =   6.0700000000000E+04
(PID.TID 0000.0001) %MON dynstat_eta_max              =   5.7989364582777E+00
(PID.TID 0000.0001) %MON dynstat_eta_min              =  -1.4189945046317E+01
(PID.TID 0000.0001) %MON dynstat_eta_mean             =  -2.5031202422150E+00
(PID.TID 0000.0001) %MON dynstat_eta_sd               =   4.9496322064789E+00
(PID.TID 0000.0001) %MON dynstat_eta_del2             =   2.0714233517436E-01
(PID.TID 0000.0001) %MON dynstat_uvel_max             =   1.7026241722373E-03
(PID.TID 0000.0001) %MON dynstat_uvel_min             =  -6.7778997835006E-03
(PID.TID 0000.0001) %MON dynstat_uvel_mean            =  -1.1672083155654E-07
(PID.TID 0000.0001) %MON dynstat_uvel_sd              =   2.3835985080234E-04
(PID.TID 0000.0001) %MON dynstat_uvel_del2            =   4.0369884932463E-07
(PID.TID 0000.0001) %MON dynstat_vvel_max             =   5.8391508094520E-03
(PID.TID 0000.0001) %MON dynstat_vvel_min             =  -2.9145910221127E-03
(PID.TID 0000.0001) %MON dynstat_vvel_mean            =   1.4954026222710E-05
(PID.TID 0000.0001) %MON dynstat_vvel_sd              =   1.7893991090286E-04
(PID.TID 0000.0001) %MON dynstat_vvel_del2            =   3.8986873880208E-07
(PID.TID 0000.0001) %MON dynstat_wvel_max             =   2.2371380747081E-04
(PID.TID 0000.0001) %MON dynstat_wvel_min             =  -2.5199659558597E-04
(PID.TID 0000.0001) %MON dynstat_wvel_mean            =   6.5961157585683E-09
(PID.TID 0000.0001) %MON dynstat_wvel_sd              =   1.8914717382008E-05
(PID.TID 0000.0001) %MON dynstat_wvel_del2            =   7.8398955154612E-08
(PID.TID 0000.0001) %MON dynstat_theta_max            =   1.2000000000000E+00
(PID.TID 0000.0001) %MON dynstat_theta_min            =  -1.0000000000000E+00
(PID.TID 0000.0001) %MON dynstat_theta_mean           =   5.6898538083504E-01
(PID.TID 0000.0001) %MON dynstat_theta_sd             =   8.6852145332693E-01
(PID.TID 0000.0001) %MON dynstat_theta_del2           =   1.2787359621823E-06
(PID.TID 0000.0001) %MON dynstat_salt_max             =   3.4700000000000E+01
(PID.TID 0000.0001) %MON dynstat_salt_min             =   3.4000000000000E+01
(PID.TID 0000.0001) %MON dynstat_salt_mean            =   3.4499208295054E+01
(PID.TID 0000.0001) %MON dynstat_salt_sd              =   2.7634346095743E-01
(PID.TID 0000.0001) %MON dynstat_salt_del2            =   4.7494979280794E-07
(PID.TID 0000.0001) %MON advcfl_uvel_max              =   6.7778997835006E-04
(PID.TID 0000.0001) %MON advcfl_vvel_max              =   5.8391508094520E-04
(PID.TID 0000.0001) %MON advcfl_wvel_max              =   1.2599829779299E-03
(PID.TID 0000.0001) %MON advcfl_W_hf_max              =   1.2599829779299E-03
(PID.TID 0000.0001) %MON pe_b_mean                    =  -8.2968549039080E-01
(PID.TID 0000.0001) %MON ke_max                       =   1.3982992312057E-05
(PID.TID 0000.0001) %MON ke_mean                      =   4.3964216490172E-08
(PID.TID 0000.0001) %MON ke_vol                       =   4.2725115444230E+12
(PID.TID 0000.0001) // =======================================================
(PID.TID 0000.0001) // End MONITOR dynamic field statistics
(PID.TID 0000.0001) // =======================================================
(PID.TID 0000.0001) // =======================================================
(PID.TID 0000.0001) // Begin OBCS MONITOR field statistics
(PID.TID 0000.0001) // =======================================================
(PID.TID 0000.0001) %MON obc_N_vVel_max               =   1.4722398083572E-05
(PID.TID 0000.0001) %MON obc_N_vVel_min               =   1.4722398083572E-05
(PID.TID 0000.0001) %MON obc_N_vVel_mean              =   1.4722398083572E-05
(PID.TID 0000.0001) %MON obc_N_vVel_sd                =   2.6418433750728E-12
(PID.TID 0000.0001) %MON obc_N_vVel_Int               =   9.7167827351575E+02
(PID.TID 0000.0001) // =======================================================
(PID.TID 0000.0001) // End OBCS MONITOR field statistics
(PID.TID 0000.0001) // =======================================================
 cg2d: Sum(rhs),rhsMax =   4.50713277220246E+00  2.99900657094801E+02
(PID.TID 0000.0001)      cg2d_init_res =   5.91903046083517E-06
(PID.TID 0000.0001)      cg2d_iters(min,last) =      -1      78
(PID.TID 0000.0001)      cg2d_last_res =   7.70291783560831E-12
(PID.TID 0000.0001) // =======================================================
(PID.TID 0000.0001) // Begin MONITOR dynamic field statistics
(PID.TID 0000.0001) // =======================================================
(PID.TID 0000.0001) %MON time_tsnumber                =                   608
(PID.TID 0000.0001) %MON time_secondsf                =   6.0800000000000E+04
(PID.TID 0000.0001) %MON dynstat_eta_max              =   5.7989236426351E+00
(PID.TID 0000.0001) %MON dynstat_eta_min              =  -1.4189969690277E+01
(PID.TID 0000.0001) %MON dynstat_eta_mean             =  -2.5031334814760E+00
(PID.TID 0000.0001) %MON dynstat_eta_sd               =   4.9496366200754E+00
(PID.TID 0000.0001) %MON dynstat_eta_del2             =   2.0714234614011E-01
(PID.TID 0000.0001) %MON dynstat_uvel_max             =   1.7056818261729E-03
(PID.TID 0000.0001) %MON dynstat_uvel_min             =  -6.7976053572378E-03
(PID.TID 0000.0001) %MON dynstat_uvel_mean            =  -1.1668060610082E-07
(PID.TID 0000.0001) %MON dynstat_uvel_sd              =   2.3876528611197E-04
(PID.TID 0000.0001) %MON dynstat_uvel_del2            =   4.0447798375908E-07
(PID.TID 0000.0001) %MON dynstat_vvel_max             =   5.8529960803924E-03
(PID.TID 0000.0001) %MON dynstat_vvel_min             =  -2.9229431854443E-03
(PID.TID 0000.0001) %MON dynstat_vvel_mean            =   1.4954129342546E-05
(PID.TID 0000.0001) %MON dynstat_vvel_sd              =   1.7941165296110E-04
(PID.TID 0000.0001) %MON dynstat_vvel_del2            =   3.9258315340784E-07
(PID.TID 0000.0001) %MON dynstat_wvel_max             =   2.2459290930836E-04
(PID.TID 0000.0001) %MON dynstat_wvel_min             =  -2.5277114728765E-04
(PID.TID 0000.0001) %MON dynstat_wvel_mean            =   6.5983193399969E-09
(PID.TID 0000.0001) %MON dynstat_wvel_sd              =   1.9488689528192E-05
(PID.TID 0000.0001) %MON dynstat_wvel_del2            =   8.1205621434651E-08
(PID.TID 0000.0001) %MON dynstat_theta_max            =   1.2000000000000E+00
(PID.TID 0000.0001) %MON dynstat_theta_min            =  -1.0000000000000E+00
(PID.TID 0000.0001) %MON dynstat_theta_mean           =   5.6898501168458E-01
(PID.TID 0000.0001) %MON dynstat_theta_sd             =   8.6852125230276E-01
(PID.TID 0000.0001) %MON dynstat_theta_del2           =   1.2767972825015E-06
(PID.TID 0000.0001) %MON dynstat_salt_max             =   3.4700000000000E+01
(PID.TID 0000.0001) %MON dynstat_salt_min             =   3.4000000000000E+01
(PID.TID 0000.0001) %MON dynstat_salt_mean            =   3.4499208147402E+01
(PID.TID 0000.0001) %MON dynstat_salt_sd              =   2.7634338563260E-01
(PID.TID 0000.0001) %MON dynstat_salt_del2            =   4.7468340061283E-07
(PID.TID 0000.0001) %MON advcfl_uvel_max              =   6.7976053572378E-04
(PID.TID 0000.0001) %MON advcfl_vvel_max              =   5.8529960803924E-04
(PID.TID 0000.0001) %MON advcfl_wvel_max              =   1.2638557364383E-03
(PID.TID 0000.0001) %MON advcfl_W_hf_max              =   1.2638557364383E-03
(PID.TID 0000.0001) %MON pe_b_mean                    =  -8.2968924749110E-01
(PID.TID 0000.0001) %MON ke_max                       =   1.4062515351167E-05
(PID.TID 0000.0001) %MON ke_mean                      =   4.4143540837678E-08
(PID.TID 0000.0001) %MON ke_vol                       =   4.2725114657612E+12
(PID.TID 0000.0001) // =======================================================
(PID.TID 0000.0001) // End MONITOR dynamic field statistics
(PID.TID 0000.0001) // =======================================================
(PID.TID 0000.0001) // =======================================================
(PID.TID 0000.0001) // Begin OBCS MONITOR field statistics
(PID.TID 0000.0001) // =======================================================
(PID.TID 0000.0001) %MON obc_N_vVel_max               =   1.4722323791789E-05
(PID.TID 0000.0001) %MON obc_N_vVel_min               =   1.4722323791789E-05
(PID.TID 0000.0001) %MON obc_N_vVel_mean              =   1.4722323791789E-05
(PID.TID 0000.0001) %MON obc_N_vVel_sd                =  -1.8973455300435E-23
(PID.TID 0000.0001) %MON obc_N_vVel_Int               =   9.7167337025809E+02
(PID.TID 0000.0001) // =======================================================
(PID.TID 0000.0001) // End OBCS MONITOR field statistics
(PID.TID 0000.0001) // =======================================================
 cg2d: Sum(rhs),rhsMax =   4.50715545850501E+00  2.99900733385073E+02
(PID.TID 0000.0001)      cg2d_init_res =   5.94850358424634E-06
(PID.TID 0000.0001)      cg2d_iters(min,last) =      -1      78
(PID.TID 0000.0001)      cg2d_last_res =   7.72732394065340E-12
(PID.TID 0000.0001) // =======================================================
(PID.TID 0000.0001) // Begin MONITOR dynamic field statistics
(PID.TID 0000.0001) // =======================================================
(PID.TID 0000.0001) %MON time_tsnumber                =                   609
(PID.TID 0000.0001) %MON time_secondsf                =   6.0900000000000E+04
(PID.TID 0000.0001) %MON dynstat_eta_max              =   5.7989108515336E+00
(PID.TID 0000.0001) %MON dynstat_eta_min              =  -1.4189994335591E+01
(PID.TID 0000.0001) %MON dynstat_eta_mean             =  -2.5031467175670E+00
(PID.TID 0000.0001) %MON dynstat_eta_sd               =   4.9496410330961E+00
(PID.TID 0000.0001) %MON dynstat_eta_del2             =   2.0714235712319E-01
(PID.TID 0000.0001) %MON dynstat_uvel_max             =   1.7087340632964E-03
(PID.TID 0000.0001) %MON dynstat_uvel_min             =  -6.8173572591688E-03
(PID.TID 0000.0001) %MON dynstat_uvel_mean            =  -1.1677472355443E-07
(PID.TID 0000.0001) %MON dynstat_uvel_sd              =   2.3917150314289E-04
(PID.TID 0000.0001) %MON dynstat_uvel_del2            =   4.0525772074683E-07
(PID.TID 0000.0001) %MON dynstat_vvel_max             =   5.8668590885373E-03
(PID.TID 0000.0001) %MON dynstat_vvel_min             =  -2.9313008442164E-03
(PID.TID 0000.0001) %MON dynstat_vvel_mean            =   1.4954560251815E-05
(PID.TID 0000.0001) %MON dynstat_vvel_sd              =   1.7988154590929E-04
(PID.TID 0000.0001) %MON dynstat_vvel_del2            =   3.9526611025792E-07
(PID.TID 0000.0001) %MON dynstat_wvel_max             =   2.2547411712081E-04
(PID.TID 0000.0001) %MON dynstat_wvel_min             =  -2.5354737984411E-04
(PID.TID 0000.0001) %MON dynstat_wvel_mean            =   6.6010501485571E-09
(PID.TID 0000.0001) %MON dynstat_wvel_sd              =   2.0041187327991E-05
(PID.TID 0000.0001) %MON dynstat_wvel_del2            =   8.4060530311760E-08
(PID.TID 0000.0001) %MON dynstat_theta_max            =   1.2000000000000E+00
(PID.TID 0000.0001) %MON dynstat_theta_min            =  -1.0000000000000E+00
(PID.TID 0000.0001) %MON dynstat_theta_mean           =   5.6898464198335E-01
(PID.TID 0000.0001) %MON dynstat_theta_sd             =   8.6852105099399E-01
(PID.TID 0000.0001) %MON dynstat_theta_del2           =   1.2749474670270E-06
(PID.TID 0000.0001) %MON dynstat_salt_max             =   3.4700000000000E+01
(PID.TID 0000.0001) %MON dynstat_salt_min             =   3.4000000000000E+01
(PID.TID 0000.0001) %MON dynstat_salt_mean            =   3.4499207999542E+01
(PID.TID 0000.0001) %MON dynstat_salt_sd              =   2.7634331019635E-01
(PID.TID 0000.0001) %MON dynstat_salt_del2            =   4.7444275149839E-07
(PID.TID 0000.0001) %MON advcfl_uvel_max              =   6.8173572591688E-04
(PID.TID 0000.0001) %MON advcfl_vvel_max              =   5.8668590885373E-04
(PID.TID 0000.0001) %MON advcfl_wvel_max              =   1.2677368992206E-03
(PID.TID 0000.0001) %MON advcfl_W_hf_max              =   1.2677368992206E-03
(PID.TID 0000.0001) %MON pe_b_mean                    =  -8.2969300347828E-01
(PID.TID 0000.0001) %MON ke_max                       =   1.4142464596106E-05
(PID.TID 0000.0001) %MON ke_mean                      =   4.4323104382180E-08
(PID.TID 0000.0001) %MON ke_vol                       =   4.2725113871200E+12
(PID.TID 0000.0001) // =======================================================
(PID.TID 0000.0001) // End MONITOR dynamic field statistics
(PID.TID 0000.0001) // =======================================================
(PID.TID 0000.0001) // =======================================================
(PID.TID 0000.0001) // Begin OBCS MONITOR field statistics
(PID.TID 0000.0001) // =======================================================
(PID.TID 0000.0001) %MON obc_N_vVel_max               =   1.4722514437908E-05
(PID.TID 0000.0001) %MON obc_N_vVel_min               =   1.4722514437907E-05
(PID.TID 0000.0001) %MON obc_N_vVel_mean              =   1.4722514437907E-05
(PID.TID 0000.0001) %MON obc_N_vVel_sd                =   3.6450773090749E-12
(PID.TID 0000.0001) %MON obc_N_vVel_Int               =   9.7168595290187E+02
(PID.TID 0000.0001) // =======================================================
(PID.TID 0000.0001) // End OBCS MONITOR field statistics
(PID.TID 0000.0001) // =======================================================
 cg2d: Sum(rhs),rhsMax =   4.50717813923381E+00  2.99900809697522E+02
(PID.TID 0000.0001)      cg2d_init_res =   5.97756000547962E-06
(PID.TID 0000.0001)      cg2d_iters(min,last) =      -1      78
(PID.TID 0000.0001)      cg2d_last_res =   7.74840653254995E-12
(PID.TID 0000.0001) // =======================================================
(PID.TID 0000.0001) // Begin MONITOR dynamic field statistics
(PID.TID 0000.0001) // =======================================================
(PID.TID 0000.0001) %MON time_tsnumber                =                   610
(PID.TID 0000.0001) %MON time_secondsf                =   6.1000000000000E+04
(PID.TID 0000.0001) %MON dynstat_eta_max              =   5.7988980824375E+00
(PID.TID 0000.0001) %MON dynstat_eta_min              =  -1.4190018981218E+01
(PID.TID 0000.0001) %MON dynstat_eta_mean             =  -2.5031599507541E+00
(PID.TID 0000.0001) %MON dynstat_eta_sd               =   4.9496454456013E+00
(PID.TID 0000.0001) %MON dynstat_eta_del2             =   2.0714236812373E-01
(PID.TID 0000.0001) %MON dynstat_uvel_max             =   1.7117808648441E-03
(PID.TID 0000.0001) %MON dynstat_uvel_min             =  -6.8371555991904E-03
(PID.TID 0000.0001) %MON dynstat_uvel_mean            =  -1.1697042931443E-07
(PID.TID 0000.0001) %MON dynstat_uvel_sd              =   2.3957857481996E-04
(PID.TID 0000.0001) %MON dynstat_uvel_del2            =   4.0603852089669E-07
(PID.TID 0000.0001) %MON dynstat_vvel_max             =   5.8807398869716E-03
(PID.TID 0000.0001) %MON dynstat_vvel_min             =  -2.9396640139305E-03
(PID.TID 0000.0001) %MON dynstat_vvel_mean            =   1.4955299304308E-05
(PID.TID 0000.0001) %MON dynstat_vvel_sd              =   1.8033154988365E-04
(PID.TID 0000.0001) %MON dynstat_vvel_del2            =   3.9777793790804E-07
(PID.TID 0000.0001) %MON dynstat_wvel_max             =   2.2635743716787E-04
(PID.TID 0000.0001) %MON dynstat_wvel_min             =  -2.5432530016733E-04
(PID.TID 0000.0001) %MON dynstat_wvel_mean            =   6.6042880983366E-09
(PID.TID 0000.0001) %MON dynstat_wvel_sd              =   2.0538624603279E-05
(PID.TID 0000.0001) %MON dynstat_wvel_del2            =   8.6770996468872E-08
(PID.TID 0000.0001) %MON dynstat_theta_max            =   1.2000000000000E+00
(PID.TID 0000.0001) %MON dynstat_theta_min            =  -1.0000000000000E+00
(PID.TID 0000.0001) %MON dynstat_theta_mean           =   5.6898427170221E-01
(PID.TID 0000.0001) %MON dynstat_theta_sd             =   8.6852084942686E-01
(PID.TID 0000.0001) %MON dynstat_theta_del2           =   1.2733451696219E-06
(PID.TID 0000.0001) %MON dynstat_salt_max             =   3.4700000000000E+01
(PID.TID 0000.0001) %MON dynstat_salt_min             =   3.4000000000000E+01
(PID.TID 0000.0001) %MON dynstat_salt_mean            =   3.4499207851464E+01
(PID.TID 0000.0001) %MON dynstat_salt_sd              =   2.7634323465728E-01
(PID.TID 0000.0001) %MON dynstat_salt_del2            =   4.7427090137077E-07
(PID.TID 0000.0001) %MON advcfl_uvel_max              =   6.8371555991904E-04
(PID.TID 0000.0001) %MON advcfl_vvel_max              =   5.8807398869716E-04
(PID.TID 0000.0001) %MON advcfl_wvel_max              =   1.2716265008367E-03
(PID.TID 0000.0001) %MON advcfl_W_hf_max              =   1.2716265008367E-03
(PID.TID 0000.0001) %MON pe_b_mean                    =  -8.2969675842578E-01
(PID.TID 0000.0001) %MON ke_max                       =   1.4222842127417E-05
(PID.TID 0000.0001) %MON ke_mean                      =   4.4499669247397E-08
(PID.TID 0000.0001) %MON ke_vol                       =   4.2725113084977E+12
(PID.TID 0000.0001) // =======================================================
(PID.TID 0000.0001) // End MONITOR dynamic field statistics
(PID.TID 0000.0001) // =======================================================
(PID.TID 0000.0001) // =======================================================
(PID.TID 0000.0001) // Begin OBCS MONITOR field statistics
(PID.TID 0000.0001) // =======================================================
(PID.TID 0000.0001) %MON obc_N_vVel_max               =   1.4722954619442E-05
(PID.TID 0000.0001) %MON obc_N_vVel_min               =   1.4722954619442E-05
(PID.TID 0000.0001) %MON obc_N_vVel_mean              =   1.4722954619442E-05
(PID.TID 0000.0001) %MON obc_N_vVel_sd                =   4.5218216203810E-12
(PID.TID 0000.0001) %MON obc_N_vVel_Int               =   9.7171500488315E+02
(PID.TID 0000.0001) // =======================================================
(PID.TID 0000.0001) // End OBCS MONITOR field statistics
(PID.TID 0000.0001) // =======================================================
 cg2d: Sum(rhs),rhsMax =   4.50720081485194E+00  2.99900886031404E+02
(PID.TID 0000.0001)      cg2d_init_res =   6.00431045043425E-06
(PID.TID 0000.0001)      cg2d_iters(min,last) =      -1      78
(PID.TID 0000.0001)      cg2d_last_res =   7.76498735193859E-12
(PID.TID 0000.0001) // =======================================================
(PID.TID 0000.0001) // Begin MONITOR dynamic field statistics
(PID.TID 0000.0001) // =======================================================
(PID.TID 0000.0001) %MON time_tsnumber                =                   611
(PID.TID 0000.0001) %MON time_secondsf                =   6.1100000000000E+04
(PID.TID 0000.0001) %MON dynstat_eta_max              =   5.7988853332682E+00
(PID.TID 0000.0001) %MON dynstat_eta_min              =  -1.4190043626273E+01
(PID.TID 0000.0001) %MON dynstat_eta_mean             =  -2.5031731812881E+00
(PID.TID 0000.0001) %MON dynstat_eta_sd               =   4.9496498576440E+00
(PID.TID 0000.0001) %MON dynstat_eta_del2             =   2.0714237914174E-01
(PID.TID 0000.0001) %MON dynstat_uvel_max             =   1.7148223139569E-03
(PID.TID 0000.0001) %MON dynstat_uvel_min             =  -6.8570004790685E-03
(PID.TID 0000.0001) %MON dynstat_uvel_mean            =  -1.1723444988499E-07
(PID.TID 0000.0001) %MON dynstat_uvel_sd              =   2.3998657727878E-04
(PID.TID 0000.0001) %MON dynstat_uvel_del2            =   4.0682080568600E-07
(PID.TID 0000.0001) %MON dynstat_vvel_max             =   5.8946384980407E-03
(PID.TID 0000.0001) %MON dynstat_vvel_min             =  -2.9480326956426E-03
(PID.TID 0000.0001) %MON dynstat_vvel_mean            =   1.4956322015017E-05
(PID.TID 0000.0001) %MON dynstat_vvel_sd              =   1.8074526804061E-04
(PID.TID 0000.0001) %MON dynstat_vvel_del2            =   3.9999247519868E-07
(PID.TID 0000.0001) %MON dynstat_wvel_max             =   2.2724287617151E-04
(PID.TID 0000.0001) %MON dynstat_wvel_min             =  -2.5510491722014E-04
(PID.TID 0000.0001) %MON dynstat_wvel_mean            =   6.6079525394641E-09
(PID.TID 0000.0001) %MON dynstat_wvel_sd              =   2.0953064082758E-05
(PID.TID 0000.0001) %MON dynstat_wvel_del2            =   8.9170611584834E-08
(PID.TID 0000.0001) %MON dynstat_theta_max            =   1.2000000000000E+00
(PID.TID 0000.0001) %MON dynstat_theta_min            =  -1.0000000000000E+00
(PID.TID 0000.0001) %MON dynstat_theta_mean           =   5.6898390081473E-01
(PID.TID 0000.0001) %MON dynstat_theta_sd             =   8.6852064762941E-01
(PID.TID 0000.0001) %MON dynstat_theta_del2           =   1.2721387181247E-06
(PID.TID 0000.0001) %MON dynstat_salt_max             =   3.4700000000000E+01
(PID.TID 0000.0001) %MON dynstat_salt_min             =   3.4000000000000E+01
(PID.TID 0000.0001) %MON dynstat_salt_mean            =   3.4499207703159E+01
(PID.TID 0000.0001) %MON dynstat_salt_sd              =   2.7634315902389E-01
(PID.TID 0000.0001) %MON dynstat_salt_del2            =   4.7420786165569E-07
(PID.TID 0000.0001) %MON advcfl_uvel_max              =   6.8570004790685E-04
(PID.TID 0000.0001) %MON advcfl_vvel_max              =   5.8946384980407E-04
(PID.TID 0000.0001) %MON advcfl_wvel_max              =   1.2755245861007E-03
(PID.TID 0000.0001) %MON advcfl_W_hf_max              =   1.2755245861007E-03
(PID.TID 0000.0001) %MON pe_b_mean                    =  -8.2970051240120E-01
(PID.TID 0000.0001) %MON ke_max                       =   1.4303650038733E-05
(PID.TID 0000.0001) %MON ke_mean                      =   4.4670263624881E-08
(PID.TID 0000.0001) %MON ke_vol                       =   4.2725112298925E+12
(PID.TID 0000.0001) // =======================================================
(PID.TID 0000.0001) // End MONITOR dynamic field statistics
(PID.TID 0000.0001) // =======================================================
(PID.TID 0000.0001) // =======================================================
(PID.TID 0000.0001) // Begin OBCS MONITOR field statistics
(PID.TID 0000.0001) // =======================================================
(PID.TID 0000.0001) %MON obc_N_vVel_max               =   1.4723629433183E-05
(PID.TID 0000.0001) %MON obc_N_vVel_min               =   1.4723629433183E-05
(PID.TID 0000.0001) %MON obc_N_vVel_mean              =   1.4723629433183E-05
(PID.TID 0000.0001) %MON obc_N_vVel_sd                =  -6.8759388418470E-24
(PID.TID 0000.0001) %MON obc_N_vVel_Int               =   9.7175954259010E+02
(PID.TID 0000.0001) // =======================================================
(PID.TID 0000.0001) // End OBCS MONITOR field statistics
(PID.TID 0000.0001) // =======================================================
 cg2d: Sum(rhs),rhsMax =   4.50722348579739E+00  2.99900962385439E+02
(PID.TID 0000.0001)      cg2d_init_res =   6.02703037788055E-06
(PID.TID 0000.0001)      cg2d_iters(min,last) =      -1      78
(PID.TID 0000.0001)      cg2d_last_res =   7.77725051076976E-12
(PID.TID 0000.0001) // =======================================================
(PID.TID 0000.0001) // Begin MONITOR dynamic field statistics
(PID.TID 0000.0001) // =======================================================
(PID.TID 0000.0001) %MON time_tsnumber                =                   612
(PID.TID 0000.0001) %MON time_secondsf                =   6.1200000000000E+04
(PID.TID 0000.0001) %MON dynstat_eta_max              =   5.7988726025295E+00
(PID.TID 0000.0001) %MON dynstat_eta_min              =  -1.4190068270198E+01
(PID.TID 0000.0001) %MON dynstat_eta_mean             =  -2.5031864094016E+00
(PID.TID 0000.0001) %MON dynstat_eta_sd               =   4.9496542692711E+00
(PID.TID 0000.0001) %MON dynstat_eta_del2             =   2.0714239017719E-01
(PID.TID 0000.0001) %MON dynstat_uvel_max             =   1.7178585827280E-03
(PID.TID 0000.0001) %MON dynstat_uvel_min             =  -6.8768919932740E-03
(PID.TID 0000.0001) %MON dynstat_uvel_mean            =  -1.1753548150416E-07
(PID.TID 0000.0001) %MON dynstat_uvel_sd              =   2.4039558648081E-04
(PID.TID 0000.0001) %MON dynstat_uvel_del2            =   4.0760493503638E-07
(PID.TID 0000.0001) %MON dynstat_vvel_max             =   5.9085549226632E-03
(PID.TID 0000.0001) %MON dynstat_vvel_min             =  -2.9564068775034E-03
(PID.TID 0000.0001) %MON dynstat_vvel_mean            =   1.4957598535803E-05
(PID.TID 0000.0001) %MON dynstat_vvel_sd              =   1.8110894130848E-04
(PID.TID 0000.0001) %MON dynstat_vvel_del2            =   4.0180432126164E-07
(PID.TID 0000.0001) %MON dynstat_wvel_max             =   2.2813044110749E-04
(PID.TID 0000.0001) %MON dynstat_wvel_min             =  -2.5588624178630E-04
(PID.TID 0000.0001) %MON dynstat_wvel_mean            =   6.6119126820411E-09
(PID.TID 0000.0001) %MON dynstat_wvel_sd              =   2.1262697996149E-05
(PID.TID 0000.0001) %MON dynstat_wvel_del2            =   9.1122997607629E-08
(PID.TID 0000.0001) %MON dynstat_theta_max            =   1.2000000000000E+00
(PID.TID 0000.0001) %MON dynstat_theta_min            =  -1.0000000000000E+00
(PID.TID 0000.0001) %MON dynstat_theta_mean           =   5.6898352929745E-01
(PID.TID 0000.0001) %MON dynstat_theta_sd             =   8.6852044563534E-01
(PID.TID 0000.0001) %MON dynstat_theta_del2           =   1.2714546287537E-06
(PID.TID 0000.0001) %MON dynstat_salt_max             =   3.4700000000000E+01
(PID.TID 0000.0001) %MON dynstat_salt_min             =   3.4000000000000E+01
(PID.TID 0000.0001) %MON dynstat_salt_mean            =   3.4499207554620E+01
(PID.TID 0000.0001) %MON dynstat_salt_sd              =   2.7634308330713E-01
(PID.TID 0000.0001) %MON dynstat_salt_del2            =   4.7428780519628E-07
(PID.TID 0000.0001) %MON advcfl_uvel_max              =   6.8768919932740E-04
(PID.TID 0000.0001) %MON advcfl_vvel_max              =   5.9085549226632E-04
(PID.TID 0000.0001) %MON advcfl_wvel_max              =   1.2794312089315E-03
(PID.TID 0000.0001) %MON advcfl_W_hf_max              =   1.2794312089315E-03
(PID.TID 0000.0001) %MON pe_b_mean                    =  -8.2970426546410E-01
(PID.TID 0000.0001) %MON ke_max                       =   1.4384890436762E-05
(PID.TID 0000.0001) %MON ke_mean                      =   4.4832369284479E-08
(PID.TID 0000.0001) %MON ke_vol                       =   4.2725111513031E+12
(PID.TID 0000.0001) // =======================================================
(PID.TID 0000.0001) // End MONITOR dynamic field statistics
(PID.TID 0000.0001) // =======================================================
(PID.TID 0000.0001) // =======================================================
(PID.TID 0000.0001) // Begin OBCS MONITOR field statistics
(PID.TID 0000.0001) // =======================================================
(PID.TID 0000.0001) %MON obc_N_vVel_max               =   1.4724522610082E-05
(PID.TID 0000.0001) %MON obc_N_vVel_min               =   1.4724522610081E-05
(PID.TID 0000.0001) %MON obc_N_vVel_mean              =   1.4724522610081E-05
(PID.TID 0000.0001) %MON obc_N_vVel_sd                =   3.8114773392954E-12
(PID.TID 0000.0001) %MON obc_N_vVel_Int               =   9.7181849226537E+02
(PID.TID 0000.0001) // =======================================================
(PID.TID 0000.0001) // End OBCS MONITOR field statistics
(PID.TID 0000.0001) // =======================================================
 cg2d: Sum(rhs),rhsMax =   4.50724615247287E+00  2.99901038757863E+02
(PID.TID 0000.0001)      cg2d_init_res =   6.04426452683896E-06
(PID.TID 0000.0001)      cg2d_iters(min,last) =      -1      78
(PID.TID 0000.0001)      cg2d_last_res =   7.78611057253816E-12
(PID.TID 0000.0001) // =======================================================
(PID.TID 0000.0001) // Begin MONITOR dynamic field statistics
(PID.TID 0000.0001) // =======================================================
(PID.TID 0000.0001) %MON time_tsnumber                =                   613
(PID.TID 0000.0001) %MON time_secondsf                =   6.1300000000000E+04
(PID.TID 0000.0001) %MON dynstat_eta_max              =   5.7988598893691E+00
(PID.TID 0000.0001) %MON dynstat_eta_min              =  -1.4190092912832E+01
(PID.TID 0000.0001) %MON dynstat_eta_mean             =  -2.5031996353037E+00
(PID.TID 0000.0001) %MON dynstat_eta_sd               =   4.9496586805238E+00
(PID.TID 0000.0001) %MON dynstat_eta_del2             =   2.0714240123012E-01
(PID.TID 0000.0001) %MON dynstat_uvel_max             =   1.7208899036947E-03
(PID.TID 0000.0001) %MON dynstat_uvel_min             =  -6.8968302308585E-03
(PID.TID 0000.0001) %MON dynstat_uvel_mean            =  -1.1784513275571E-07
(PID.TID 0000.0001) %MON dynstat_uvel_sd              =   2.4080567512007E-04
(PID.TID 0000.0001) %MON dynstat_uvel_del2            =   4.0839119152007E-07
(PID.TID 0000.0001) %MON dynstat_vvel_max             =   5.9224891513168E-03
(PID.TID 0000.0001) %MON dynstat_vvel_min             =  -2.9647865389135E-03
(PID.TID 0000.0001) %MON dynstat_vvel_mean            =   1.4959093522542E-05
(PID.TID 0000.0001) %MON dynstat_vvel_sd              =   1.8141225674929E-04
(PID.TID 0000.0001) %MON dynstat_vvel_del2            =   4.0313456166103E-07
(PID.TID 0000.0001) %MON dynstat_wvel_max             =   2.2902013898177E-04
(PID.TID 0000.0001) %MON dynstat_wvel_min             =  -2.5666928589104E-04
(PID.TID 0000.0001) %MON dynstat_wvel_mean            =   6.6160068840504E-09
(PID.TID 0000.0001) %MON dynstat_wvel_sd              =   2.1452018481627E-05
(PID.TID 0000.0001) %MON dynstat_wvel_del2            =   9.2523025128519E-08
(PID.TID 0000.0001) %MON dynstat_theta_max            =   1.2000000000000E+00
(PID.TID 0000.0001) %MON dynstat_theta_min            =  -1.0000000000000E+00
(PID.TID 0000.0001) %MON dynstat_theta_mean           =   5.6898315713012E-01
(PID.TID 0000.0001) %MON dynstat_theta_sd             =   8.6852024348112E-01
(PID.TID 0000.0001) %MON dynstat_theta_del2           =   1.2713892254439E-06
(PID.TID 0000.0001) %MON dynstat_salt_max             =   3.4700000000000E+01
(PID.TID 0000.0001) %MON dynstat_salt_min             =   3.4000000000000E+01
(PID.TID 0000.0001) %MON dynstat_salt_mean            =   3.4499207405841E+01
(PID.TID 0000.0001) %MON dynstat_salt_sd              =   2.7634300751851E-01
(PID.TID 0000.0001) %MON dynstat_salt_del2            =   4.7453660695299E-07
(PID.TID 0000.0001) %MON advcfl_uvel_max              =   6.8968302308585E-04
(PID.TID 0000.0001) %MON advcfl_vvel_max              =   5.9224891513168E-04
(PID.TID 0000.0001) %MON advcfl_wvel_max              =   1.2833464294552E-03
(PID.TID 0000.0001) %MON advcfl_W_hf_max              =   1.2833464294552E-03
(PID.TID 0000.0001) %MON pe_b_mean                    =  -8.2970801766399E-01
(PID.TID 0000.0001) %MON ke_max                       =   1.4466565438208E-05
(PID.TID 0000.0001) %MON ke_mean                      =   4.4984078689376E-08
(PID.TID 0000.0001) %MON ke_vol                       =   4.2725110727282E+12
(PID.TID 0000.0001) // =======================================================
(PID.TID 0000.0001) // End MONITOR dynamic field statistics
(PID.TID 0000.0001) // =======================================================
(PID.TID 0000.0001) // =======================================================
(PID.TID 0000.0001) // Begin OBCS MONITOR field statistics
(PID.TID 0000.0001) // =======================================================
(PID.TID 0000.0001) %MON obc_N_vVel_max               =   1.4725614515531E-05
(PID.TID 0000.0001) %MON obc_N_vVel_min               =   1.4725614515530E-05
(PID.TID 0000.0001) %MON obc_N_vVel_mean              =   1.4725614515530E-05
(PID.TID 0000.0001) %MON obc_N_vVel_sd                =   3.3532799542974E-12
(PID.TID 0000.0001) %MON obc_N_vVel_Int               =   9.7189055802500E+02
(PID.TID 0000.0001) // =======================================================
(PID.TID 0000.0001) // End OBCS MONITOR field statistics
(PID.TID 0000.0001) // =======================================================
 cg2d: Sum(rhs),rhsMax =   4.50726881523969E+00  2.99901115146469E+02
(PID.TID 0000.0001)      cg2d_init_res =   6.05491097208665E-06
(PID.TID 0000.0001)      cg2d_iters(min,last) =      -1      78
(PID.TID 0000.0001)      cg2d_last_res =   7.79279174476613E-12
(PID.TID 0000.0001) // =======================================================
(PID.TID 0000.0001) // Begin MONITOR dynamic field statistics
(PID.TID 0000.0001) // =======================================================
(PID.TID 0000.0001) %MON time_tsnumber                =                   614
(PID.TID 0000.0001) %MON time_secondsf                =   6.1400000000000E+04
(PID.TID 0000.0001) %MON dynstat_eta_max              =   5.7988471935406E+00
(PID.TID 0000.0001) %MON dynstat_eta_min              =  -1.4190117554453E+01
(PID.TID 0000.0001) %MON dynstat_eta_mean             =  -2.5032128591765E+00
(PID.TID 0000.0001) %MON dynstat_eta_sd               =   4.9496630914367E+00
(PID.TID 0000.0001) %MON dynstat_eta_del2             =   2.0714241230071E-01
(PID.TID 0000.0001) %MON dynstat_uvel_max             =   1.7239165332721E-03
(PID.TID 0000.0001) %MON dynstat_uvel_min             =  -6.9168152783545E-03
(PID.TID 0000.0001) %MON dynstat_uvel_mean            =  -1.1813809163899E-07
(PID.TID 0000.0001) %MON dynstat_uvel_sd              =   2.4121690999463E-04
(PID.TID 0000.0001) %MON dynstat_uvel_del2            =   4.0917976905723E-07
(PID.TID 0000.0001) %MON dynstat_vvel_max             =   5.9364411747334E-03
(PID.TID 0000.0001) %MON dynstat_vvel_min             =  -2.9731716559001E-03
(PID.TID 0000.0001) %MON dynstat_vvel_mean            =   1.4960766474520E-05
(PID.TID 0000.0001) %MON dynstat_vvel_sd              =   1.8164892860353E-04
(PID.TID 0000.0001) %MON dynstat_vvel_del2            =   4.0393485499183E-07
(PID.TID 0000.0001) %MON dynstat_wvel_max             =   2.2991197666682E-04
(PID.TID 0000.0001) %MON dynstat_wvel_min             =  -2.5745406214931E-04
(PID.TID 0000.0001) %MON dynstat_wvel_mean            =   6.6200635398109E-09
(PID.TID 0000.0001) %MON dynstat_wvel_sd              =   2.1511840176312E-05
(PID.TID 0000.0001) %MON dynstat_wvel_del2            =   9.3296866372623E-08
(PID.TID 0000.0001) %MON dynstat_theta_max            =   1.2000000000000E+00
(PID.TID 0000.0001) %MON dynstat_theta_min            =  -1.0000000000000E+00
(PID.TID 0000.0001) %MON dynstat_theta_mean           =   5.6898278429627E-01
(PID.TID 0000.0001) %MON dynstat_theta_sd             =   8.6852004119429E-01
(PID.TID 0000.0001) %MON dynstat_theta_del2           =   1.2720013253232E-06
(PID.TID 0000.0001) %MON dynstat_salt_max             =   3.4700000000000E+01
(PID.TID 0000.0001) %MON dynstat_salt_min             =   3.4000000000000E+01
(PID.TID 0000.0001) %MON dynstat_salt_mean            =   3.4499207256816E+01
(PID.TID 0000.0001) %MON dynstat_salt_sd              =   2.7634293166658E-01
(PID.TID 0000.0001) %MON dynstat_salt_del2            =   4.7496993418592E-07
(PID.TID 0000.0001) %MON advcfl_uvel_max              =   6.9168152783545E-04
(PID.TID 0000.0001) %MON advcfl_vvel_max              =   5.9364411747334E-04
(PID.TID 0000.0001) %MON advcfl_wvel_max              =   1.2872703107465E-03
(PID.TID 0000.0001) %MON advcfl_W_hf_max              =   1.2872703107465E-03
(PID.TID 0000.0001) %MON pe_b_mean                    =  -8.2971176903952E-01
(PID.TID 0000.0001) %MON ke_max                       =   1.4548677167405E-05
(PID.TID 0000.0001) %MON ke_mean                      =   4.5124211691233E-08
(PID.TID 0000.0001) %MON ke_vol                       =   4.2725109941663E+12
(PID.TID 0000.0001) // =======================================================
(PID.TID 0000.0001) // End MONITOR dynamic field statistics
(PID.TID 0000.0001) // =======================================================
(PID.TID 0000.0001) // =======================================================
(PID.TID 0000.0001) // Begin OBCS MONITOR field statistics
(PID.TID 0000.0001) // =======================================================
(PID.TID 0000.0001) %MON obc_N_vVel_max               =   1.4726880695529E-05
(PID.TID 0000.0001) %MON obc_N_vVel_min               =   1.4726880695529E-05
(PID.TID 0000.0001) %MON obc_N_vVel_mean              =   1.4726880695529E-05
(PID.TID 0000.0001) %MON obc_N_vVel_sd                =   2.0273267296178E-12
(PID.TID 0000.0001) %MON obc_N_vVel_Int               =   9.7197412590490E+02
(PID.TID 0000.0001) // =======================================================
(PID.TID 0000.0001) // End OBCS MONITOR field statistics
(PID.TID 0000.0001) // =======================================================
 cg2d: Sum(rhs),rhsMax =   4.50729147440650E+00  2.99901191548714E+02
(PID.TID 0000.0001)      cg2d_init_res =   6.05826852333118E-06
(PID.TID 0000.0001)      cg2d_iters(min,last) =      -1      78
(PID.TID 0000.0001)      cg2d_last_res =   7.79852332629481E-12
(PID.TID 0000.0001) // =======================================================
(PID.TID 0000.0001) // Begin MONITOR dynamic field statistics
(PID.TID 0000.0001) // =======================================================
(PID.TID 0000.0001) %MON time_tsnumber                =                   615
(PID.TID 0000.0001) %MON time_secondsf                =   6.1500000000000E+04
(PID.TID 0000.0001) %MON dynstat_eta_max              =   5.7988345153458E+00
(PID.TID 0000.0001) %MON dynstat_eta_min              =  -1.4190142195718E+01
(PID.TID 0000.0001) %MON dynstat_eta_mean             =  -2.5032260811701E+00
(PID.TID 0000.0001) %MON dynstat_eta_sd               =   4.9496675020309E+00
(PID.TID 0000.0001) %MON dynstat_eta_del2             =   2.0714242338889E-01
(PID.TID 0000.0001) %MON dynstat_uvel_max             =   1.7269387146939E-03
(PID.TID 0000.0001) %MON dynstat_uvel_min             =  -6.9368472221676E-03
(PID.TID 0000.0001) %MON dynstat_uvel_mean            =  -1.1839223484757E-07
(PID.TID 0000.0001) %MON dynstat_uvel_sd              =   2.4162935004667E-04
(PID.TID 0000.0001) %MON dynstat_uvel_del2            =   4.0997076863546E-07
(PID.TID 0000.0001) %MON dynstat_vvel_max             =   5.9504109929023E-03
(PID.TID 0000.0001) %MON dynstat_vvel_min             =  -2.9815622069762E-03
(PID.TID 0000.0001) %MON dynstat_vvel_mean            =   1.4962572525252E-05
(PID.TID 0000.0001) %MON dynstat_vvel_sd              =   1.8181702492031E-04
(PID.TID 0000.0001) %MON dynstat_vvel_del2            =   4.0418983414742E-07
(PID.TID 0000.0001) %MON dynstat_wvel_max             =   2.3080596080746E-04
(PID.TID 0000.0001) %MON dynstat_wvel_min             =  -2.5824058284832E-04
(PID.TID 0000.0001) %MON dynstat_wvel_mean            =   6.6239207348098E-09
(PID.TID 0000.0001) %MON dynstat_wvel_sd              =   2.1439267031309E-05
(PID.TID 0000.0001) %MON dynstat_wvel_del2            =   9.3401678598710E-08
(PID.TID 0000.0001) %MON dynstat_theta_max            =   1.2000000000000E+00
(PID.TID 0000.0001) %MON dynstat_theta_min            =  -1.0000000000000E+00
(PID.TID 0000.0001) %MON dynstat_theta_mean           =   5.6898241078360E-01
(PID.TID 0000.0001) %MON dynstat_theta_sd             =   8.6851983878946E-01
(PID.TID 0000.0001) %MON dynstat_theta_del2           =   1.2733075522393E-06
(PID.TID 0000.0001) %MON dynstat_salt_max             =   3.4700000000000E+01
(PID.TID 0000.0001) %MON dynstat_salt_min             =   3.4000000000000E+01
(PID.TID 0000.0001) %MON dynstat_salt_mean            =   3.4499207107541E+01
(PID.TID 0000.0001) %MON dynstat_salt_sd              =   2.7634285575609E-01
(PID.TID 0000.0001) %MON dynstat_salt_del2            =   4.7559207376959E-07
(PID.TID 0000.0001) %MON advcfl_uvel_max              =   6.9368472221676E-04
(PID.TID 0000.0001) %MON advcfl_vvel_max              =   5.9504109929023E-04
(PID.TID 0000.0001) %MON advcfl_wvel_max              =   1.2912029142416E-03
(PID.TID 0000.0001) %MON advcfl_W_hf_max              =   1.2912029142416E-03
(PID.TID 0000.0001) %MON pe_b_mean                    =  -8.2971551961725E-01
(PID.TID 0000.0001) %MON ke_max                       =   1.4631227751213E-05
(PID.TID 0000.0001) %MON ke_mean                      =   4.5252384420390E-08
(PID.TID 0000.0001) %MON ke_vol                       =   4.2725109156165E+12
(PID.TID 0000.0001) // =======================================================
(PID.TID 0000.0001) // End MONITOR dynamic field statistics
(PID.TID 0000.0001) // =======================================================
(PID.TID 0000.0001) // =======================================================
(PID.TID 0000.0001) // Begin OBCS MONITOR field statistics
(PID.TID 0000.0001) // =======================================================
(PID.TID 0000.0001) %MON obc_N_vVel_max               =   1.4728291147653E-05
(PID.TID 0000.0001) %MON obc_N_vVel_min               =   1.4728291147652E-05
(PID.TID 0000.0001) %MON obc_N_vVel_mean              =   1.4728291147653E-05
(PID.TID 0000.0001) %MON obc_N_vVel_sd                =  -2.3367852304623E-23
(PID.TID 0000.0001) %MON obc_N_vVel_Int               =   9.7206721574510E+02
(PID.TID 0000.0001) // =======================================================
(PID.TID 0000.0001) // End OBCS MONITOR field statistics
(PID.TID 0000.0001) // =======================================================
 cg2d: Sum(rhs),rhsMax =   4.50731413020788E+00  2.99901267961800E+02
(PID.TID 0000.0001)      cg2d_init_res =   6.05409572722907E-06
(PID.TID 0000.0001)      cg2d_iters(min,last) =      -1      78
(PID.TID 0000.0001)      cg2d_last_res =   7.80453511977967E-12
(PID.TID 0000.0001) // =======================================================
(PID.TID 0000.0001) // Begin MONITOR dynamic field statistics
(PID.TID 0000.0001) // =======================================================
(PID.TID 0000.0001) %MON time_tsnumber                =                   616
(PID.TID 0000.0001) %MON time_secondsf                =   6.1600000000000E+04
(PID.TID 0000.0001) %MON dynstat_eta_max              =   5.7988218555094E+00
(PID.TID 0000.0001) %MON dynstat_eta_min              =  -1.4190166837578E+01
(PID.TID 0000.0001) %MON dynstat_eta_mean             =  -2.5032393013916E+00
(PID.TID 0000.0001) %MON dynstat_eta_sd               =   4.9496719123178E+00
(PID.TID 0000.0001) %MON dynstat_eta_del2             =   2.0714243449474E-01
(PID.TID 0000.0001) %MON dynstat_uvel_max             =   1.7299566475235E-03
(PID.TID 0000.0001) %MON dynstat_uvel_min             =  -6.9569261510223E-03
(PID.TID 0000.0001) %MON dynstat_uvel_mean            =  -1.1858911692637E-07
(PID.TID 0000.0001) %MON dynstat_uvel_sd              =   2.4204304518784E-04
(PID.TID 0000.0001) %MON dynstat_uvel_del2            =   4.1076420054716E-07
(PID.TID 0000.0001) %MON dynstat_vvel_max             =   5.9643986210656E-03
(PID.TID 0000.0001) %MON dynstat_vvel_min             =  -2.9899581775421E-03
(PID.TID 0000.0001) %MON dynstat_vvel_mean            =   1.4964463607829E-05
(PID.TID 0000.0001) %MON dynstat_vvel_sd              =   1.8191902632940E-04
(PID.TID 0000.0001) %MON dynstat_vvel_del2            =   4.0391780747385E-07
(PID.TID 0000.0001) %MON dynstat_wvel_max             =   2.3170209777240E-04
(PID.TID 0000.0001) %MON dynstat_wvel_min             =  -2.5902885945331E-04
(PID.TID 0000.0001) %MON dynstat_wvel_mean            =   6.6274411689147E-09
(PID.TID 0000.0001) %MON dynstat_wvel_sd              =   2.1237647013688E-05
(PID.TID 0000.0001) %MON dynstat_wvel_del2            =   9.2825330031617E-08
(PID.TID 0000.0001) %MON dynstat_theta_max            =   1.2000000000000E+00
(PID.TID 0000.0001) %MON dynstat_theta_min            =  -1.0000000000000E+00
(PID.TID 0000.0001) %MON dynstat_theta_mean           =   5.6898203658357E-01
(PID.TID 0000.0001) %MON dynstat_theta_sd             =   8.6851963628593E-01
(PID.TID 0000.0001) %MON dynstat_theta_del2           =   1.2752804867653E-06
(PID.TID 0000.0001) %MON dynstat_salt_max             =   3.4700000000000E+01
(PID.TID 0000.0001) %MON dynstat_salt_min             =   3.4000000000000E+01
(PID.TID 0000.0001) %MON dynstat_salt_mean            =   3.4499206958014E+01
(PID.TID 0000.0001) %MON dynstat_salt_sd              =   2.7634277979299E-01
(PID.TID 0000.0001) %MON dynstat_salt_del2            =   4.7639544737073E-07
(PID.TID 0000.0001) %MON advcfl_uvel_max              =   6.9569261510223E-04
(PID.TID 0000.0001) %MON advcfl_vvel_max              =   5.9643986210656E-04
(PID.TID 0000.0001) %MON advcfl_wvel_max              =   1.2951442972665E-03
(PID.TID 0000.0001) %MON advcfl_W_hf_max              =   1.2951442972665E-03
(PID.TID 0000.0001) %MON pe_b_mean                    =  -8.2971926941004E-01
(PID.TID 0000.0001) %MON ke_max                       =   1.4714219316897E-05
(PID.TID 0000.0001) %MON ke_mean                      =   4.5369026115417E-08
(PID.TID 0000.0001) %MON ke_vol                       =   4.2725108370778E+12
(PID.TID 0000.0001) // =======================================================
(PID.TID 0000.0001) // End MONITOR dynamic field statistics
(PID.TID 0000.0001) // =======================================================
(PID.TID 0000.0001) // =======================================================
(PID.TID 0000.0001) // Begin OBCS MONITOR field statistics
(PID.TID 0000.0001) // =======================================================
(PID.TID 0000.0001) %MON obc_N_vVel_max               =   1.4729810431618E-05
(PID.TID 0000.0001) %MON obc_N_vVel_min               =   1.4729810431618E-05
(PID.TID 0000.0001) %MON obc_N_vVel_mean              =   1.4729810431618E-05
(PID.TID 0000.0001) %MON obc_N_vVel_sd                =   2.1329541413358E-12
(PID.TID 0000.0001) %MON obc_N_vVel_Int               =   9.7216748848678E+02
(PID.TID 0000.0001) // =======================================================
(PID.TID 0000.0001) // End OBCS MONITOR field statistics
(PID.TID 0000.0001) // =======================================================
 cg2d: Sum(rhs),rhsMax =   4.50733678280700E+00  2.99901344382720E+02
(PID.TID 0000.0001)      cg2d_init_res =   6.04262057056348E-06
(PID.TID 0000.0001)      cg2d_iters(min,last) =      -1      78
(PID.TID 0000.0001)      cg2d_last_res =   7.81158849611387E-12
(PID.TID 0000.0001) // =======================================================
(PID.TID 0000.0001) // Begin MONITOR dynamic field statistics
(PID.TID 0000.0001) // =======================================================
(PID.TID 0000.0001) %MON time_tsnumber                =                   617
(PID.TID 0000.0001) %MON time_secondsf                =   6.1700000000000E+04
(PID.TID 0000.0001) %MON dynstat_eta_max              =   5.7988092150368E+00
(PID.TID 0000.0001) %MON dynstat_eta_min              =  -1.4190191481128E+01
(PID.TID 0000.0001) %MON dynstat_eta_mean             =  -2.5032525199065E+00
(PID.TID 0000.0001) %MON dynstat_eta_sd               =   4.9496763222940E+00
(PID.TID 0000.0001) %MON dynstat_eta_del2             =   2.0714244561834E-01
(PID.TID 0000.0001) %MON dynstat_uvel_max             =   1.7329704675932E-03
(PID.TID 0000.0001) %MON dynstat_uvel_min             =  -6.9770521577226E-03
(PID.TID 0000.0001) %MON dynstat_uvel_mean            =  -1.1871490299885E-07
(PID.TID 0000.0001) %MON dynstat_uvel_sd              =   2.4245803592864E-04
(PID.TID 0000.0001) %MON dynstat_uvel_del2            =   4.1155999275999E-07
(PID.TID 0000.0001) %MON dynstat_vvel_max             =   5.9784040926765E-03
(PID.TID 0000.0001) %MON dynstat_vvel_min             =  -2.9983595629668E-03
(PID.TID 0000.0001) %MON dynstat_vvel_mean            =   1.4966389870205E-05
(PID.TID 0000.0001) %MON dynstat_vvel_sd              =   1.8196161680537E-04
(PID.TID 0000.0001) %MON dynstat_vvel_del2            =   4.0316975212853E-07
(PID.TID 0000.0001) %MON dynstat_wvel_max             =   2.3260039362136E-04
(PID.TID 0000.0001) %MON dynstat_wvel_min             =  -2.5981890211746E-04
(PID.TID 0000.0001) %MON dynstat_wvel_mean            =   6.6305205568322E-09
(PID.TID 0000.0001) %MON dynstat_wvel_sd              =   2.0916525063858E-05
(PID.TID 0000.0001) %MON dynstat_wvel_del2            =   9.1586351664483E-08
(PID.TID 0000.0001) %MON dynstat_theta_max            =   1.2000000000000E+00
(PID.TID 0000.0001) %MON dynstat_theta_min            =  -1.0000000000000E+00
(PID.TID 0000.0001) %MON dynstat_theta_mean           =   5.6898166169223E-01
(PID.TID 0000.0001) %MON dynstat_theta_sd             =   8.6851943370018E-01
(PID.TID 0000.0001) %MON dynstat_theta_del2           =   1.2778501495333E-06
(PID.TID 0000.0001) %MON dynstat_salt_max             =   3.4700000000000E+01
(PID.TID 0000.0001) %MON dynstat_salt_min             =   3.4000000000000E+01
(PID.TID 0000.0001) %MON dynstat_salt_mean            =   3.4499206808232E+01
(PID.TID 0000.0001) %MON dynstat_salt_sd              =   2.7634270378269E-01
(PID.TID 0000.0001) %MON dynstat_salt_del2            =   4.7736103832815E-07
(PID.TID 0000.0001) %MON advcfl_uvel_max              =   6.9770521577226E-04
(PID.TID 0000.0001) %MON advcfl_vvel_max              =   5.9784040926765E-04
(PID.TID 0000.0001) %MON advcfl_wvel_max              =   1.2990945105873E-03
(PID.TID 0000.0001) %MON advcfl_W_hf_max              =   1.2990945105873E-03
(PID.TID 0000.0001) %MON pe_b_mean                    =  -8.2972301841852E-01
(PID.TID 0000.0001) %MON ke_max                       =   1.4797653991449E-05
(PID.TID 0000.0001) %MON ke_mean                      =   4.5475343061911E-08
(PID.TID 0000.0001) %MON ke_vol                       =   4.2725107585497E+12
(PID.TID 0000.0001) // =======================================================
(PID.TID 0000.0001) // End MONITOR dynamic field statistics
(PID.TID 0000.0001) // =======================================================
(PID.TID 0000.0001) // =======================================================
(PID.TID 0000.0001) // Begin OBCS MONITOR field statistics
(PID.TID 0000.0001) // =======================================================
(PID.TID 0000.0001) %MON obc_N_vVel_max               =   1.4731398566083E-05
(PID.TID 0000.0001) %MON obc_N_vVel_min               =   1.4731398566082E-05
(PID.TID 0000.0001) %MON obc_N_vVel_mean              =   1.4731398566082E-05
(PID.TID 0000.0001) %MON obc_N_vVel_sd                =   3.6662903532026E-12
(PID.TID 0000.0001) %MON obc_N_vVel_Int               =   9.7227230536143E+02
(PID.TID 0000.0001) // =======================================================
(PID.TID 0000.0001) // End OBCS MONITOR field statistics
(PID.TID 0000.0001) // =======================================================
 cg2d: Sum(rhs),rhsMax =   4.50735943228516E+00  2.99901420808335E+02
(PID.TID 0000.0001)      cg2d_init_res =   6.02451963315506E-06
(PID.TID 0000.0001)      cg2d_iters(min,last) =      -1      78
(PID.TID 0000.0001)      cg2d_last_res =   7.82017030734411E-12
(PID.TID 0000.0001) // =======================================================
(PID.TID 0000.0001) // Begin MONITOR dynamic field statistics
(PID.TID 0000.0001) // =======================================================
(PID.TID 0000.0001) %MON time_tsnumber                =                   618
(PID.TID 0000.0001) %MON time_secondsf                =   6.1800000000000E+04
(PID.TID 0000.0001) %MON dynstat_eta_max              =   5.7987965950716E+00
(PID.TID 0000.0001) %MON dynstat_eta_min              =  -1.4190216127451E+01
(PID.TID 0000.0001) %MON dynstat_eta_mean             =  -2.5032657367337E+00
(PID.TID 0000.0001) %MON dynstat_eta_sd               =   4.9496807319381E+00
(PID.TID 0000.0001) %MON dynstat_eta_del2             =   2.0714245675966E-01
(PID.TID 0000.0001) %MON dynstat_uvel_max             =   1.7359802393973E-03
(PID.TID 0000.0001) %MON dynstat_uvel_min             =  -6.9972253397355E-03
(PID.TID 0000.0001) %MON dynstat_uvel_mean            =  -1.1876158526206E-07
(PID.TID 0000.0001) %MON dynstat_uvel_sd              =   2.4287435378855E-04
(PID.TID 0000.0001) %MON dynstat_uvel_del2            =   4.1235800436954E-07
(PID.TID 0000.0001) %MON dynstat_vvel_max             =   5.9924274592582E-03
(PID.TID 0000.0001) %MON dynstat_vvel_min             =  -3.0067663694737E-03
(PID.TID 0000.0001) %MON dynstat_vvel_mean            =   1.4968301213555E-05
(PID.TID 0000.0001) %MON dynstat_vvel_sd              =   1.8195521905771E-04
(PID.TID 0000.0001) %MON dynstat_vvel_del2            =   4.0202659338804E-07
(PID.TID 0000.0001) %MON dynstat_wvel_max             =   2.3350085413012E-04
(PID.TID 0000.0001) %MON dynstat_wvel_min             =  -2.6061071955340E-04
(PID.TID 0000.0001) %MON dynstat_wvel_mean            =   6.6330904308653E-09
(PID.TID 0000.0001) %MON dynstat_wvel_sd              =   2.0491576728743E-05
(PID.TID 0000.0001) %MON dynstat_wvel_del2            =   8.9734168824807E-08
(PID.TID 0000.0001) %MON dynstat_theta_max            =   1.2000000000000E+00
(PID.TID 0000.0001) %MON dynstat_theta_min            =  -1.0000000000000E+00
(PID.TID 0000.0001) %MON dynstat_theta_mean           =   5.6898128611031E-01
(PID.TID 0000.0001) %MON dynstat_theta_sd             =   8.6851923103463E-01
(PID.TID 0000.0001) %MON dynstat_theta_del2           =   1.2809088048614E-06
(PID.TID 0000.0001) %MON dynstat_salt_max             =   3.4700000000000E+01
(PID.TID 0000.0001) %MON dynstat_salt_min             =   3.4000000000000E+01
(PID.TID 0000.0001) %MON dynstat_salt_mean            =   3.4499206658196E+01
(PID.TID 0000.0001) %MON dynstat_salt_sd              =   2.7634262772564E-01
(PID.TID 0000.0001) %MON dynstat_salt_del2            =   4.7845960868700E-07
(PID.TID 0000.0001) %MON advcfl_uvel_max              =   6.9972253397355E-04
(PID.TID 0000.0001) %MON advcfl_vvel_max              =   5.9924274592582E-04
(PID.TID 0000.0001) %MON advcfl_wvel_max              =   1.3030535977670E-03
(PID.TID 0000.0001) %MON advcfl_W_hf_max              =   1.3030535977670E-03
(PID.TID 0000.0001) %MON pe_b_mean                    =  -8.2972676663083E-01
(PID.TID 0000.0001) %MON ke_max                       =   1.4881533900923E-05
(PID.TID 0000.0001) %MON ke_mean                      =   4.5573232253449E-08
(PID.TID 0000.0001) %MON ke_vol                       =   4.2725106800318E+12
(PID.TID 0000.0001) // =======================================================
(PID.TID 0000.0001) // End MONITOR dynamic field statistics
(PID.TID 0000.0001) // =======================================================
(PID.TID 0000.0001) // =======================================================
(PID.TID 0000.0001) // Begin OBCS MONITOR field statistics
(PID.TID 0000.0001) // =======================================================
(PID.TID 0000.0001) %MON obc_N_vVel_max               =   1.4733012476105E-05
(PID.TID 0000.0001) %MON obc_N_vVel_min               =   1.4733012476105E-05
(PID.TID 0000.0001) %MON obc_N_vVel_mean              =   1.4733012476105E-05
(PID.TID 0000.0001) %MON obc_N_vVel_sd                =  -1.3829425866121E-23
(PID.TID 0000.0001) %MON obc_N_vVel_Int               =   9.7237882342296E+02
(PID.TID 0000.0001) // =======================================================
(PID.TID 0000.0001) // End OBCS MONITOR field statistics
(PID.TID 0000.0001) // =======================================================
 cg2d: Sum(rhs),rhsMax =   4.50738207863576E+00  2.99901497235443E+02
(PID.TID 0000.0001)      cg2d_init_res =   6.00088045082080E-06
(PID.TID 0000.0001)      cg2d_iters(min,last) =      -1      78
(PID.TID 0000.0001)      cg2d_last_res =   7.83069071516812E-12
(PID.TID 0000.0001) // =======================================================
(PID.TID 0000.0001) // Begin MONITOR dynamic field statistics
(PID.TID 0000.0001) // =======================================================
(PID.TID 0000.0001) %MON time_tsnumber                =                   619
(PID.TID 0000.0001) %MON time_secondsf                =   6.1900000000000E+04
(PID.TID 0000.0001) %MON dynstat_eta_max              =   5.7987839967692E+00
(PID.TID 0000.0001) %MON dynstat_eta_min              =  -1.4190240777490E+01
(PID.TID 0000.0001) %MON dynstat_eta_mean             =  -2.5032789518427E+00
(PID.TID 0000.0001) %MON dynstat_eta_sd               =   4.9496851412116E+00
(PID.TID 0000.0001) %MON dynstat_eta_del2             =   2.0714246791863E-01
(PID.TID 0000.0001) %MON dynstat_uvel_max             =   1.7389859601509E-03
(PID.TID 0000.0001) %MON dynstat_uvel_min             =  -7.0174457994767E-03
(PID.TID 0000.0001) %MON dynstat_uvel_mean            =  -1.1872809084726E-07
(PID.TID 0000.0001) %MON dynstat_uvel_sd              =   2.4329202236783E-04
(PID.TID 0000.0001) %MON dynstat_uvel_del2            =   4.1315804323986E-07
(PID.TID 0000.0001) %MON dynstat_vvel_max             =   6.0064687881525E-03
(PID.TID 0000.0001) %MON dynstat_vvel_min             =  -3.0151786133468E-03
(PID.TID 0000.0001) %MON dynstat_vvel_mean            =   1.4970148838422E-05
(PID.TID 0000.0001) %MON dynstat_vvel_sd              =   1.8191330063398E-04
(PID.TID 0000.0001) %MON dynstat_vvel_del2            =   4.0059478369563E-07
(PID.TID 0000.0001) %MON dynstat_wvel_max             =   2.3440348482659E-04
(PID.TID 0000.0001) %MON dynstat_wvel_min             =  -2.6140431916847E-04
(PID.TID 0000.0001) %MON dynstat_wvel_mean            =   6.6351149389507E-09
(PID.TID 0000.0001) %MON dynstat_wvel_sd              =   1.9984474522785E-05
(PID.TID 0000.0001) %MON dynstat_wvel_del2            =   8.7349568653423E-08
(PID.TID 0000.0001) %MON dynstat_theta_max            =   1.2000000000000E+00
(PID.TID 0000.0001) %MON dynstat_theta_min            =  -1.0000000000000E+00
(PID.TID 0000.0001) %MON dynstat_theta_mean           =   5.6898090984343E-01
(PID.TID 0000.0001) %MON dynstat_theta_sd             =   8.6851902829609E-01
(PID.TID 0000.0001) %MON dynstat_theta_del2           =   1.2843180139320E-06
(PID.TID 0000.0001) %MON dynstat_salt_max             =   3.4700000000000E+01
(PID.TID 0000.0001) %MON dynstat_salt_min             =   3.4000000000000E+01
(PID.TID 0000.0001) %MON dynstat_salt_mean            =   3.4499206507908E+01
(PID.TID 0000.0001) %MON dynstat_salt_sd              =   2.7634255162415E-01
(PID.TID 0000.0001) %MON dynstat_salt_del2            =   4.7965370323850E-07
(PID.TID 0000.0001) %MON advcfl_uvel_max              =   7.0174457994767E-04
(PID.TID 0000.0001) %MON advcfl_vvel_max              =   6.0064687881525E-04
(PID.TID 0000.0001) %MON advcfl_wvel_max              =   1.3070215958423E-03
(PID.TID 0000.0001) %MON advcfl_W_hf_max              =   1.3070215958423E-03
(PID.TID 0000.0001) %MON pe_b_mean                    =  -8.2973051402300E-01
(PID.TID 0000.0001) %MON ke_max                       =   1.4965861173551E-05
(PID.TID 0000.0001) %MON ke_mean                      =   4.5665150777110E-08
(PID.TID 0000.0001) %MON ke_vol                       =   4.2725106015238E+12
(PID.TID 0000.0001) // =======================================================
(PID.TID 0000.0001) // End MONITOR dynamic field statistics
(PID.TID 0000.0001) // =======================================================
(PID.TID 0000.0001) // =======================================================
(PID.TID 0000.0001) // Begin OBCS MONITOR field statistics
(PID.TID 0000.0001) // =======================================================
(PID.TID 0000.0001) %MON obc_N_vVel_max               =   1.4734607865865E-05
(PID.TID 0000.0001) %MON obc_N_vVel_min               =   1.4734607865864E-05
(PID.TID 0000.0001) %MON obc_N_vVel_mean              =   1.4734607865864E-05
(PID.TID 0000.0001) %MON obc_N_vVel_sd                =   3.9578697363889E-12
(PID.TID 0000.0001) %MON obc_N_vVel_Int               =   9.7248411914705E+02
(PID.TID 0000.0001) // =======================================================
(PID.TID 0000.0001) // End OBCS MONITOR field statistics
(PID.TID 0000.0001) // =======================================================
 cg2d: Sum(rhs),rhsMax =   4.50740472176363E+00  2.99901573660871E+02
(PID.TID 0000.0001)      cg2d_init_res =   5.97317902447989E-06
(PID.TID 0000.0001)      cg2d_iters(min,last) =      -1      78
(PID.TID 0000.0001)      cg2d_last_res =   7.84328674283904E-12
(PID.TID 0000.0001) // =======================================================
(PID.TID 0000.0001) // Begin MONITOR dynamic field statistics
(PID.TID 0000.0001) // =======================================================
(PID.TID 0000.0001) %MON time_tsnumber                =                   620
(PID.TID 0000.0001) %MON time_secondsf                =   6.2000000000000E+04
(PID.TID 0000.0001) %MON dynstat_eta_max              =   5.7987714211900E+00
(PID.TID 0000.0001) %MON dynstat_eta_min              =  -1.4190265431930E+01
(PID.TID 0000.0001) %MON dynstat_eta_mean             =  -2.5032921651544E+00
(PID.TID 0000.0001) %MON dynstat_eta_sd               =   4.9496895500619E+00
(PID.TID 0000.0001) %MON dynstat_eta_del2             =   2.0714247909528E-01
(PID.TID 0000.0001) %MON dynstat_uvel_max             =   1.7419875725304E-03
(PID.TID 0000.0001) %MON dynstat_uvel_min             =  -7.0377136434594E-03
(PID.TID 0000.0001) %MON dynstat_uvel_mean            =  -1.1862082580465E-07
(PID.TID 0000.0001) %MON dynstat_uvel_sd              =   2.4371105896566E-04
(PID.TID 0000.0001) %MON dynstat_uvel_del2            =   4.1395988724736E-07
(PID.TID 0000.0001) %MON dynstat_vvel_max             =   6.0205281583992E-03
(PID.TID 0000.0001) %MON dynstat_vvel_min             =  -3.0235963187435E-03
(PID.TID 0000.0001) %MON dynstat_vvel_mean            =   1.4971886712024E-05
(PID.TID 0000.0001) %MON dynstat_vvel_sd              =   1.8185148829665E-04
(PID.TID 0000.0001) %MON dynstat_vvel_del2            =   3.9900022681316E-07
(PID.TID 0000.0001) %MON dynstat_wvel_max             =   2.3530829103130E-04
(PID.TID 0000.0001) %MON dynstat_wvel_min             =  -2.6219970731381E-04
(PID.TID 0000.0001) %MON dynstat_wvel_mean            =   6.6365845190987E-09
(PID.TID 0000.0001) %MON dynstat_wvel_sd              =   1.9422592582066E-05
(PID.TID 0000.0001) %MON dynstat_wvel_del2            =   8.4545191689391E-08
(PID.TID 0000.0001) %MON dynstat_theta_max            =   1.2000000000000E+00
(PID.TID 0000.0001) %MON dynstat_theta_min            =  -1.0000000000000E+00
(PID.TID 0000.0001) %MON dynstat_theta_mean           =   5.6898053290125E-01
(PID.TID 0000.0001) %MON dynstat_theta_sd             =   8.6851882550141E-01
(PID.TID 0000.0001) %MON dynstat_theta_del2           =   1.2879178098977E-06
(PID.TID 0000.0001) %MON dynstat_salt_max             =   3.4700000000000E+01
(PID.TID 0000.0001) %MON dynstat_salt_min             =   3.4000000000000E+01
(PID.TID 0000.0001) %MON dynstat_salt_mean            =   3.4499206357370E+01
(PID.TID 0000.0001) %MON dynstat_salt_sd              =   2.7634247548339E-01
(PID.TID 0000.0001) %MON dynstat_salt_del2            =   4.8090001912057E-07
(PID.TID 0000.0001) %MON advcfl_uvel_max              =   7.0377136434594E-04
(PID.TID 0000.0001) %MON advcfl_vvel_max              =   6.0205281583992E-04
(PID.TID 0000.0001) %MON advcfl_wvel_max              =   1.3109985365691E-03
(PID.TID 0000.0001) %MON advcfl_W_hf_max              =   1.3109985365691E-03
(PID.TID 0000.0001) %MON pe_b_mean                    =  -8.2973426055990E-01
(PID.TID 0000.0001) %MON ke_max                       =   1.5050637941620E-05
(PID.TID 0000.0001) %MON ke_mean                      =   4.5753949585182E-08
(PID.TID 0000.0001) %MON ke_vol                       =   4.2725105230261E+12
(PID.TID 0000.0001) // =======================================================
(PID.TID 0000.0001) // End MONITOR dynamic field statistics
(PID.TID 0000.0001) // =======================================================
(PID.TID 0000.0001) // =======================================================
(PID.TID 0000.0001) // Begin OBCS MONITOR field statistics
(PID.TID 0000.0001) // =======================================================
(PID.TID 0000.0001) %MON obc_N_vVel_max               =   1.4736141131036E-05
(PID.TID 0000.0001) %MON obc_N_vVel_min               =   1.4736141131036E-05
(PID.TID 0000.0001) %MON obc_N_vVel_mean              =   1.4736141131036E-05
(PID.TID 0000.0001) %MON obc_N_vVel_sd                =   3.2871030941353E-12
(PID.TID 0000.0001) %MON obc_N_vVel_Int               =   9.7258531464839E+02
(PID.TID 0000.0001) // =======================================================
(PID.TID 0000.0001) // End OBCS MONITOR field statistics
(PID.TID 0000.0001) // =======================================================
 cg2d: Sum(rhs),rhsMax =   4.50742736148556E+00  2.99901650081515E+02
(PID.TID 0000.0001)      cg2d_init_res =   5.94315378943939E-06
(PID.TID 0000.0001)      cg2d_iters(min,last) =      -1      78
(PID.TID 0000.0001)      cg2d_last_res =   7.85752992599966E-12
(PID.TID 0000.0001) // =======================================================
(PID.TID 0000.0001) // Begin MONITOR dynamic field statistics
(PID.TID 0000.0001) // =======================================================
(PID.TID 0000.0001) %MON time_tsnumber                =                   621
(PID.TID 0000.0001) %MON time_secondsf                =   6.2100000000000E+04
(PID.TID 0000.0001) %MON dynstat_eta_max              =   5.7987588692120E+00
(PID.TID 0000.0001) %MON dynstat_eta_min              =  -1.4190290091111E+01
(PID.TID 0000.0001) %MON dynstat_eta_mean             =  -2.5033053765409E+00
(PID.TID 0000.0001) %MON dynstat_eta_sd               =   4.9496939584249E+00
(PID.TID 0000.0001) %MON dynstat_eta_del2             =   2.0714249028970E-01
(PID.TID 0000.0001) %MON dynstat_uvel_max             =   1.7449849827691E-03
(PID.TID 0000.0001) %MON dynstat_uvel_min             =  -7.0580289812616E-03
(PID.TID 0000.0001) %MON dynstat_uvel_mean            =  -1.1845336647302E-07
(PID.TID 0000.0001) %MON dynstat_uvel_sd              =   2.4413147650146E-04
(PID.TID 0000.0001) %MON dynstat_uvel_del2            =   4.1476330595230E-07
(PID.TID 0000.0001) %MON dynstat_vvel_max             =   6.0346056564713E-03
(PID.TID 0000.0001) %MON dynstat_vvel_min             =  -3.0320195146967E-03
(PID.TID 0000.0001) %MON dynstat_vvel_mean            =   1.4973472906928E-05
(PID.TID 0000.0001) %MON dynstat_vvel_sd              =   1.8178654236845E-04
(PID.TID 0000.0001) %MON dynstat_vvel_del2            =   3.9738069801660E-07
(PID.TID 0000.0001) %MON dynstat_wvel_max             =   2.3621527791084E-04
(PID.TID 0000.0001) %MON dynstat_wvel_min             =  -2.6299688963166E-04
(PID.TID 0000.0001) %MON dynstat_wvel_mean            =   6.6375089020845E-09
(PID.TID 0000.0001) %MON dynstat_wvel_sd              =   1.8838398224931E-05
(PID.TID 0000.0001) %MON dynstat_wvel_del2            =   8.1465593219159E-08
(PID.TID 0000.0001) %MON dynstat_theta_max            =   1.2000000000000E+00
(PID.TID 0000.0001) %MON dynstat_theta_min            =  -1.0000000000000E+00
(PID.TID 0000.0001) %MON dynstat_theta_mean           =   5.6898015529730E-01
(PID.TID 0000.0001) %MON dynstat_theta_sd             =   8.6851862265667E-01
(PID.TID 0000.0001) %MON dynstat_theta_del2           =   1.2915373392329E-06
(PID.TID 0000.0001) %MON dynstat_salt_max             =   3.4700000000000E+01
(PID.TID 0000.0001) %MON dynstat_salt_min             =   3.4000000000000E+01
(PID.TID 0000.0001) %MON dynstat_salt_mean            =   3.4499206206587E+01
(PID.TID 0000.0001) %MON dynstat_salt_sd              =   2.7634239930542E-01
(PID.TID 0000.0001) %MON dynstat_salt_del2            =   4.8215237291998E-07
(PID.TID 0000.0001) %MON advcfl_uvel_max              =   7.0580289812616E-04
(PID.TID 0000.0001) %MON advcfl_vvel_max              =   6.0346056564713E-04
(PID.TID 0000.0001) %MON advcfl_wvel_max              =   1.3149844481583E-03
(PID.TID 0000.0001) %MON advcfl_W_hf_max              =   1.3149844481583E-03
(PID.TID 0000.0001) %MON pe_b_mean                    =  -8.2973800619584E-01
(PID.TID 0000.0001) %MON ke_max                       =   1.5135866344760E-05
(PID.TID 0000.0001) %MON ke_mean                      =   4.5842682914486E-08
(PID.TID 0000.0001) %MON ke_vol                       =   4.2725104445390E+12
(PID.TID 0000.0001) // =======================================================
(PID.TID 0000.0001) // End MONITOR dynamic field statistics
(PID.TID 0000.0001) // =======================================================
(PID.TID 0000.0001) // =======================================================
(PID.TID 0000.0001) // Begin OBCS MONITOR field statistics
(PID.TID 0000.0001) // =======================================================
(PID.TID 0000.0001) %MON obc_N_vVel_max               =   1.4737571203265E-05
(PID.TID 0000.0001) %MON obc_N_vVel_min               =   1.4737571203265E-05
(PID.TID 0000.0001) %MON obc_N_vVel_mean              =   1.4737571203265E-05
(PID.TID 0000.0001) %MON obc_N_vVel_sd                =   2.4646719098972E-12
(PID.TID 0000.0001) %MON obc_N_vVel_Int               =   9.7267969941547E+02
(PID.TID 0000.0001) // =======================================================
(PID.TID 0000.0001) // End OBCS MONITOR field statistics
(PID.TID 0000.0001) // =======================================================
 cg2d: Sum(rhs),rhsMax =   4.50744999754326E+00  2.99901726494432E+02
(PID.TID 0000.0001)      cg2d_init_res =   5.91272519530523E-06
(PID.TID 0000.0001)      cg2d_iters(min,last) =      -1      78
(PID.TID 0000.0001)      cg2d_last_res =   7.87300033331733E-12
(PID.TID 0000.0001) // =======================================================
(PID.TID 0000.0001) // Begin MONITOR dynamic field statistics
(PID.TID 0000.0001) // =======================================================
(PID.TID 0000.0001) %MON time_tsnumber                =                   622
(PID.TID 0000.0001) %MON time_secondsf                =   6.2200000000000E+04
(PID.TID 0000.0001) %MON dynstat_eta_max              =   5.7987463414939E+00
(PID.TID 0000.0001) %MON dynstat_eta_min              =  -1.4190314755011E+01
(PID.TID 0000.0001) %MON dynstat_eta_mean             =  -2.5033185858343E+00
(PID.TID 0000.0001) %MON dynstat_eta_sd               =   4.9496983662204E+00
(PID.TID 0000.0001) %MON dynstat_eta_del2             =   2.0714250150188E-01
(PID.TID 0000.0001) %MON dynstat_uvel_max             =   1.7479780801037E-03
(PID.TID 0000.0001) %MON dynstat_uvel_min             =  -7.0783919241091E-03
(PID.TID 0000.0001) %MON dynstat_uvel_mean            =  -1.1824515180248E-07
(PID.TID 0000.0001) %MON dynstat_uvel_sd              =   2.4455328559569E-04
(PID.TID 0000.0001) %MON dynstat_uvel_del2            =   4.1556808371885E-07
(PID.TID 0000.0001) %MON dynstat_vvel_max             =   6.0487013712942E-03
(PID.TID 0000.0001) %MON dynstat_vvel_min             =  -3.0404482320661E-03
(PID.TID 0000.0001) %MON dynstat_vvel_mean            =   1.4974870695638E-05
(PID.TID 0000.0001) %MON dynstat_vvel_sd              =   1.8173525329093E-04
(PID.TID 0000.0001) %MON dynstat_vvel_del2            =   3.9587704526610E-07
(PID.TID 0000.0001) %MON dynstat_wvel_max             =   2.3712445058143E-04
(PID.TID 0000.0001) %MON dynstat_wvel_min             =  -2.6379587160455E-04
(PID.TID 0000.0001) %MON dynstat_wvel_mean            =   6.6379099336252E-09
(PID.TID 0000.0001) %MON dynstat_wvel_sd              =   1.8268310226086E-05
(PID.TID 0000.0001) %MON dynstat_wvel_del2            =   7.8285949093451E-08
(PID.TID 0000.0001) %MON dynstat_theta_max            =   1.2000000000000E+00
(PID.TID 0000.0001) %MON dynstat_theta_min            =  -1.0000000000000E+00
(PID.TID 0000.0001) %MON dynstat_theta_mean           =   5.6897977704915E-01
(PID.TID 0000.0001) %MON dynstat_theta_sd             =   8.6851841975058E-01
(PID.TID 0000.0001) %MON dynstat_theta_del2           =   1.2950056207033E-06
(PID.TID 0000.0001) %MON dynstat_salt_max             =   3.4700000000000E+01
(PID.TID 0000.0001) %MON dynstat_salt_min             =   3.4000000000000E+01
(PID.TID 0000.0001) %MON dynstat_salt_mean            =   3.4499206055565E+01
(PID.TID 0000.0001) %MON dynstat_salt_sd              =   2.7634232308644E-01
(PID.TID 0000.0001) %MON dynstat_salt_del2            =   4.8336425677381E-07
(PID.TID 0000.0001) %MON advcfl_uvel_max              =   7.0783919241091E-04
(PID.TID 0000.0001) %MON advcfl_vvel_max              =   6.0487013712942E-04
(PID.TID 0000.0001) %MON advcfl_wvel_max              =   1.3189793580228E-03
(PID.TID 0000.0001) %MON advcfl_W_hf_max              =   1.3189793580228E-03
(PID.TID 0000.0001) %MON pe_b_mean                    =  -8.2974175087650E-01
(PID.TID 0000.0001) %MON ke_max                       =   1.5221548532638E-05
(PID.TID 0000.0001) %MON ke_mean                      =   4.5934406090166E-08
(PID.TID 0000.0001) %MON ke_vol                       =   4.2725103660633E+12
(PID.TID 0000.0001) // =======================================================
(PID.TID 0000.0001) // End MONITOR dynamic field statistics
(PID.TID 0000.0001) // =======================================================
(PID.TID 0000.0001) // =======================================================
(PID.TID 0000.0001) // Begin OBCS MONITOR field statistics
(PID.TID 0000.0001) // =======================================================
(PID.TID 0000.0001) %MON obc_N_vVel_max               =   1.4738861174420E-05
(PID.TID 0000.0001) %MON obc_N_vVel_min               =   1.4738861174419E-05
(PID.TID 0000.0001) %MON obc_N_vVel_mean              =   1.4738861174419E-05
(PID.TID 0000.0001) %MON obc_N_vVel_sd                =   3.3184095444372E-12
(PID.TID 0000.0001) %MON obc_N_vVel_Int               =   9.7276483751167E+02
(PID.TID 0000.0001) // =======================================================
(PID.TID 0000.0001) // End OBCS MONITOR field statistics
(PID.TID 0000.0001) // =======================================================
 cg2d: Sum(rhs),rhsMax =   4.50747262961372E+00  2.99901802896911E+02
(PID.TID 0000.0001)      cg2d_init_res =   5.88386399899496E-06
(PID.TID 0000.0001)      cg2d_iters(min,last) =      -1      78
(PID.TID 0000.0001)      cg2d_last_res =   7.88823259215485E-12
(PID.TID 0000.0001) // =======================================================
(PID.TID 0000.0001) // Begin MONITOR dynamic field statistics
(PID.TID 0000.0001) // =======================================================
(PID.TID 0000.0001) %MON time_tsnumber                =                   623
(PID.TID 0000.0001) %MON time_secondsf                =   6.2300000000000E+04
(PID.TID 0000.0001) %MON dynstat_eta_max              =   5.7987338384561E+00
(PID.TID 0000.0001) %MON dynstat_eta_min              =  -1.4190339423238E+01
(PID.TID 0000.0001) %MON dynstat_eta_mean             =  -2.5033317928326E+00
(PID.TID 0000.0001) %MON dynstat_eta_sd               =   4.9497027733593E+00
(PID.TID 0000.0001) %MON dynstat_eta_del2             =   2.0714251273178E-01
(PID.TID 0000.0001) %MON dynstat_uvel_max             =   1.7509667550915E-03
(PID.TID 0000.0001) %MON dynstat_uvel_min             =  -7.0988025837879E-03
(PID.TID 0000.0001) %MON dynstat_uvel_mean            =  -1.1801926803452E-07
(PID.TID 0000.0001) %MON dynstat_uvel_sd              =   2.4497649649680E-04
(PID.TID 0000.0001) %MON dynstat_uvel_del2            =   4.1637403537673E-07
(PID.TID 0000.0001) %MON dynstat_vvel_max             =   6.0628153908180E-03
(PID.TID 0000.0001) %MON dynstat_vvel_min             =  -3.0488825005781E-03
(PID.TID 0000.0001) %MON dynstat_vvel_mean            =   1.4976049427402E-05
(PID.TID 0000.0001) %MON dynstat_vvel_sd              =   1.8171333112759E-04
(PID.TID 0000.0001) %MON dynstat_vvel_del2            =   3.9462363166342E-07
(PID.TID 0000.0001) %MON dynstat_wvel_max             =   2.3803581414399E-04
(PID.TID 0000.0001) %MON dynstat_wvel_min             =  -2.6459665875721E-04
(PID.TID 0000.0001) %MON dynstat_wvel_mean            =   6.6378158841360E-09
(PID.TID 0000.0001) %MON dynstat_wvel_sd              =   1.7750760914593E-05
(PID.TID 0000.0001) %MON dynstat_wvel_del2            =   7.5207781349878E-08
(PID.TID 0000.0001) %MON dynstat_theta_max            =   1.2000000000000E+00
(PID.TID 0000.0001) %MON dynstat_theta_min            =  -1.0000000000000E+00
(PID.TID 0000.0001) %MON dynstat_theta_mean           =   5.6897939817809E-01
(PID.TID 0000.0001) %MON dynstat_theta_sd             =   8.6851821674096E-01
(PID.TID 0000.0001) %MON dynstat_theta_del2           =   1.2981626439521E-06
(PID.TID 0000.0001) %MON dynstat_salt_max             =   3.4700000000000E+01
(PID.TID 0000.0001) %MON dynstat_salt_min             =   3.4000000000000E+01
(PID.TID 0000.0001) %MON dynstat_salt_mean            =   3.4499205904309E+01
(PID.TID 0000.0001) %MON dynstat_salt_sd              =   2.7634224681295E-01
(PID.TID 0000.0001) %MON dynstat_salt_del2            =   4.8449225022608E-07
(PID.TID 0000.0001) %MON advcfl_uvel_max              =   7.0988025837879E-04
(PID.TID 0000.0001) %MON advcfl_vvel_max              =   6.0628153908180E-04
(PID.TID 0000.0001) %MON advcfl_wvel_max              =   1.3229832937861E-03
(PID.TID 0000.0001) %MON advcfl_W_hf_max              =   1.3229832937861E-03
(PID.TID 0000.0001) %MON pe_b_mean                    =  -8.2974549454088E-01
(PID.TID 0000.0001) %MON ke_max                       =   1.5307686667379E-05
(PID.TID 0000.0001) %MON ke_mean                      =   4.6031975097891E-08
(PID.TID 0000.0001) %MON ke_vol                       =   4.2725102876001E+12
(PID.TID 0000.0001) // =======================================================
(PID.TID 0000.0001) // End MONITOR dynamic field statistics
(PID.TID 0000.0001) // =======================================================
(PID.TID 0000.0001) // =======================================================
(PID.TID 0000.0001) // Begin OBCS MONITOR field statistics
(PID.TID 0000.0001) // =======================================================
(PID.TID 0000.0001) %MON obc_N_vVel_max               =   1.4739979586415E-05
(PID.TID 0000.0001) %MON obc_N_vVel_min               =   1.4739979586415E-05
(PID.TID 0000.0001) %MON obc_N_vVel_mean              =   1.4739979586415E-05
(PID.TID 0000.0001) %MON obc_N_vVel_sd                =   1.6630950583849E-12
(PID.TID 0000.0001) %MON obc_N_vVel_Int               =   9.7283865270340E+02
(PID.TID 0000.0001) // =======================================================
(PID.TID 0000.0001) // End OBCS MONITOR field statistics
(PID.TID 0000.0001) // =======================================================
 cg2d: Sum(rhs),rhsMax =   4.50749525731190E+00  2.99901879286520E+02
(PID.TID 0000.0001)      cg2d_init_res =   5.85844993871769E-06
(PID.TID 0000.0001)      cg2d_iters(min,last) =      -1      78
(PID.TID 0000.0001)      cg2d_last_res =   7.90137431195175E-12
(PID.TID 0000.0001) // =======================================================
(PID.TID 0000.0001) // Begin MONITOR dynamic field statistics
(PID.TID 0000.0001) // =======================================================
(PID.TID 0000.0001) %MON time_tsnumber                =                   624
(PID.TID 0000.0001) %MON time_secondsf                =   6.2400000000000E+04
(PID.TID 0000.0001) %MON dynstat_eta_max              =   5.7987213603259E+00
(PID.TID 0000.0001) %MON dynstat_eta_min              =  -1.4190364095093E+01
(PID.TID 0000.0001) %MON dynstat_eta_mean             =  -2.5033449973017E+00
(PID.TID 0000.0001) %MON dynstat_eta_sd               =   4.9497071797495E+00
(PID.TID 0000.0001) %MON dynstat_eta_del2             =   2.0714252397966E-01
(PID.TID 0000.0001) %MON dynstat_uvel_max             =   1.7539509134952E-03
(PID.TID 0000.0001) %MON dynstat_uvel_min             =  -7.1192610712068E-03
(PID.TID 0000.0001) %MON dynstat_uvel_mean            =  -1.1779968156589E-07
(PID.TID 0000.0001) %MON dynstat_uvel_sd              =   2.4540112088246E-04
(PID.TID 0000.0001) %MON dynstat_uvel_del2            =   4.1718102416758E-07
(PID.TID 0000.0001) %MON dynstat_vvel_max             =   6.0769477989266E-03
(PID.TID 0000.0001) %MON dynstat_vvel_min             =  -3.0573223466375E-03
(PID.TID 0000.0001) %MON dynstat_vvel_mean            =   1.4976985157966E-05
(PID.TID 0000.0001) %MON dynstat_vvel_sd              =   1.8173436369630E-04
(PID.TID 0000.0001) %MON dynstat_vvel_del2            =   3.9373868470034E-07
(PID.TID 0000.0001) %MON dynstat_wvel_max             =   2.3894937379288E-04
(PID.TID 0000.0001) %MON dynstat_wvel_min             =  -2.6539925716696E-04
(PID.TID 0000.0001) %MON dynstat_wvel_mean            =   6.6372579119161E-09
(PID.TID 0000.0001) %MON dynstat_wvel_sd              =   1.7323257684294E-05
(PID.TID 0000.0001) %MON dynstat_wvel_del2            =   7.2449340250173E-08
(PID.TID 0000.0001) %MON dynstat_theta_max            =   1.2000000000000E+00
(PID.TID 0000.0001) %MON dynstat_theta_min            =  -1.0000000000000E+00
(PID.TID 0000.0001) %MON dynstat_theta_mean           =   5.6897901870820E-01
(PID.TID 0000.0001) %MON dynstat_theta_sd             =   8.6851801358381E-01
(PID.TID 0000.0001) %MON dynstat_theta_del2           =   1.3008692655633E-06
(PID.TID 0000.0001) %MON dynstat_salt_max             =   3.4700000000000E+01
(PID.TID 0000.0001) %MON dynstat_salt_min             =   3.4000000000000E+01
(PID.TID 0000.0001) %MON dynstat_salt_mean            =   3.4499205752828E+01
(PID.TID 0000.0001) %MON dynstat_salt_sd              =   2.7634217047092E-01
(PID.TID 0000.0001) %MON dynstat_salt_del2            =   4.8549856646485E-07
(PID.TID 0000.0001) %MON advcfl_uvel_max              =   7.1192610712068E-04
(PID.TID 0000.0001) %MON advcfl_vvel_max              =   6.0769477989266E-04
(PID.TID 0000.0001) %MON advcfl_wvel_max              =   1.3269962858348E-03
(PID.TID 0000.0001) %MON advcfl_W_hf_max              =   1.3269962858348E-03
(PID.TID 0000.0001) %MON pe_b_mean                    =  -8.2974923712158E-01
(PID.TID 0000.0001) %MON ke_max                       =   1.5394282924394E-05
(PID.TID 0000.0001) %MON ke_mean                      =   4.6137861270177E-08
(PID.TID 0000.0001) %MON ke_vol                       =   4.2725102091506E+12
(PID.TID 0000.0001) // =======================================================
(PID.TID 0000.0001) // End MONITOR dynamic field statistics
(PID.TID 0000.0001) // =======================================================
(PID.TID 0000.0001) // =======================================================
(PID.TID 0000.0001) // Begin OBCS MONITOR field statistics
(PID.TID 0000.0001) // =======================================================
(PID.TID 0000.0001) %MON obc_N_vVel_max               =   1.4740901277815E-05
(PID.TID 0000.0001) %MON obc_N_vVel_min               =   1.4740901277815E-05
(PID.TID 0000.0001) %MON obc_N_vVel_mean              =   1.4740901277815E-05
(PID.TID 0000.0001) %MON obc_N_vVel_sd                =   1.4199481480315E-12
(PID.TID 0000.0001) %MON obc_N_vVel_Int               =   9.7289948433579E+02
(PID.TID 0000.0001) // =======================================================
(PID.TID 0000.0001) // End OBCS MONITOR field statistics
(PID.TID 0000.0001) // =======================================================
 cg2d: Sum(rhs),rhsMax =   4.50751788021105E+00  2.99901955661167E+02
(PID.TID 0000.0001)      cg2d_init_res =   5.83817318130401E-06
(PID.TID 0000.0001)      cg2d_iters(min,last) =      -1      78
(PID.TID 0000.0001)      cg2d_last_res =   7.91076156132199E-12
(PID.TID 0000.0001) // =======================================================
(PID.TID 0000.0001) // Begin MONITOR dynamic field statistics
(PID.TID 0000.0001) // =======================================================
(PID.TID 0000.0001) %MON time_tsnumber                =                   625
(PID.TID 0000.0001) %MON time_secondsf                =   6.2500000000000E+04
(PID.TID 0000.0001) %MON dynstat_eta_max              =   5.7987089071455E+00
(PID.TID 0000.0001) %MON dynstat_eta_min              =  -1.4190388769626E+01
(PID.TID 0000.0001) %MON dynstat_eta_mean             =  -2.5033581989870E+00
(PID.TID 0000.0001) %MON dynstat_eta_sd               =   4.9497115852957E+00
(PID.TID 0000.0001) %MON dynstat_eta_del2             =   2.0714253524572E-01
(PID.TID 0000.0001) %MON dynstat_uvel_max             =   1.7569304867313E-03
(PID.TID 0000.0001) %MON dynstat_uvel_min             =  -7.1397674959730E-03
(PID.TID 0000.0001) %MON dynstat_uvel_mean            =  -1.1760831158720E-07
(PID.TID 0000.0001) %MON dynstat_uvel_sd              =   2.4582717325659E-04
(PID.TID 0000.0001) %MON dynstat_uvel_del2            =   4.1798897332300E-07
(PID.TID 0000.0001) %MON dynstat_vvel_max             =   6.0910986735703E-03
(PID.TID 0000.0001) %MON dynstat_vvel_min             =  -3.0657677919947E-03
(PID.TID 0000.0001) %MON dynstat_vvel_mean            =   1.4977661062389E-05
(PID.TID 0000.0001) %MON dynstat_vvel_sd              =   1.8180891816251E-04
(PID.TID 0000.0001) %MON dynstat_vvel_del2            =   3.9331537376253E-07
(PID.TID 0000.0001) %MON dynstat_wvel_max             =   2.3986513486034E-04
(PID.TID 0000.0001) %MON dynstat_wvel_min             =  -2.6620367348874E-04
(PID.TID 0000.0001) %MON dynstat_wvel_mean            =   6.6362679389310E-09
(PID.TID 0000.0001) %MON dynstat_wvel_sd              =   1.7018491132341E-05
(PID.TID 0000.0001) %MON dynstat_wvel_del2            =   7.0228131467722E-08
(PID.TID 0000.0001) %MON dynstat_theta_max            =   1.2000000000000E+00
(PID.TID 0000.0001) %MON dynstat_theta_min            =  -1.0000000000000E+00
(PID.TID 0000.0001) %MON dynstat_theta_mean           =   5.6897863866639E-01
(PID.TID 0000.0001) %MON dynstat_theta_sd             =   8.6851781024622E-01
(PID.TID 0000.0001) %MON dynstat_theta_del2           =   1.3030153243564E-06
(PID.TID 0000.0001) %MON dynstat_salt_max             =   3.4700000000000E+01
(PID.TID 0000.0001) %MON dynstat_salt_min             =   3.4000000000000E+01
(PID.TID 0000.0001) %MON dynstat_salt_mean            =   3.4499205601130E+01
(PID.TID 0000.0001) %MON dynstat_salt_sd              =   2.7634209404980E-01
(PID.TID 0000.0001) %MON dynstat_salt_del2            =   4.8635333936555E-07
(PID.TID 0000.0001) %MON advcfl_uvel_max              =   7.1397674959730E-04
(PID.TID 0000.0001) %MON advcfl_vvel_max              =   6.0910986735703E-04
(PID.TID 0000.0001) %MON advcfl_wvel_max              =   1.3310183674437E-03
(PID.TID 0000.0001) %MON advcfl_W_hf_max              =   1.3310183674437E-03
(PID.TID 0000.0001) %MON pe_b_mean                    =  -8.2975297854766E-01
(PID.TID 0000.0001) %MON ke_max                       =   1.5481339494002E-05
(PID.TID 0000.0001) %MON ke_mean                      =   4.6253993308989E-08
(PID.TID 0000.0001) %MON ke_vol                       =   4.2725101307160E+12
(PID.TID 0000.0001) // =======================================================
(PID.TID 0000.0001) // End MONITOR dynamic field statistics
(PID.TID 0000.0001) // =======================================================
(PID.TID 0000.0001) // =======================================================
(PID.TID 0000.0001) // Begin OBCS MONITOR field statistics
(PID.TID 0000.0001) // =======================================================
(PID.TID 0000.0001) %MON obc_N_vVel_max               =   1.4741607827426E-05
(PID.TID 0000.0001) %MON obc_N_vVel_min               =   1.4741607827426E-05
(PID.TID 0000.0001) %MON obc_N_vVel_mean              =   1.4741607827426E-05
(PID.TID 0000.0001) %MON obc_N_vVel_sd                =   3.7153164699630E-12
(PID.TID 0000.0001) %MON obc_N_vVel_Int               =   9.7294611661013E+02
(PID.TID 0000.0001) // =======================================================
(PID.TID 0000.0001) // End OBCS MONITOR field statistics
(PID.TID 0000.0001) // =======================================================
 cg2d: Sum(rhs),rhsMax =   4.50754049785368E+00  2.99902032019121E+02
(PID.TID 0000.0001)      cg2d_init_res =   5.82439484185670E-06
(PID.TID 0000.0001)      cg2d_iters(min,last) =      -1      78
(PID.TID 0000.0001)      cg2d_last_res =   7.91559067067788E-12
(PID.TID 0000.0001) // =======================================================
(PID.TID 0000.0001) // Begin MONITOR dynamic field statistics
(PID.TID 0000.0001) // =======================================================
(PID.TID 0000.0001) %MON time_tsnumber                =                   626
(PID.TID 0000.0001) %MON time_secondsf                =   6.2600000000000E+04
(PID.TID 0000.0001) %MON dynstat_eta_max              =   5.7986964788502E+00
(PID.TID 0000.0001) %MON dynstat_eta_min              =  -1.4190413445727E+01
(PID.TID 0000.0001) %MON dynstat_eta_mean             =  -2.5033713976200E+00
(PID.TID 0000.0001) %MON dynstat_eta_sd               =   4.9497159899025E+00
(PID.TID 0000.0001) %MON dynstat_eta_del2             =   2.0714254653009E-01
(PID.TID 0000.0001) %MON dynstat_uvel_max             =   1.7599054352120E-03
(PID.TID 0000.0001) %MON dynstat_uvel_min             =  -7.1603219656380E-03
(PID.TID 0000.0001) %MON dynstat_uvel_mean            =  -1.1746243908240E-07
(PID.TID 0000.0001) %MON dynstat_uvel_sd              =   2.4625467187833E-04
(PID.TID 0000.0001) %MON dynstat_uvel_del2            =   4.1879787256213E-07
(PID.TID 0000.0001) %MON dynstat_vvel_max             =   6.1052680862925E-03
(PID.TID 0000.0001) %MON dynstat_vvel_min             =  -3.0742188528725E-03
(PID.TID 0000.0001) %MON dynstat_vvel_mean            =   1.4978067718643E-05
(PID.TID 0000.0001) %MON dynstat_vvel_sd              =   1.8194385317442E-04
(PID.TID 0000.0001) %MON dynstat_vvel_del2            =   3.9341450738347E-07
(PID.TID 0000.0001) %MON dynstat_wvel_max             =   2.4078310285555E-04
(PID.TID 0000.0001) %MON dynstat_wvel_min             =  -2.6700991514144E-04
(PID.TID 0000.0001) %MON dynstat_wvel_mean            =   6.6348857486772E-09
(PID.TID 0000.0001) %MON dynstat_wvel_sd              =   1.6860011551284E-05
(PID.TID 0000.0001) %MON dynstat_wvel_del2            =   6.8734753808776E-08
(PID.TID 0000.0001) %MON dynstat_theta_max            =   1.2000000000000E+00
(PID.TID 0000.0001) %MON dynstat_theta_min            =  -1.0000000000000E+00
(PID.TID 0000.0001) %MON dynstat_theta_mean           =   5.6897825808185E-01
(PID.TID 0000.0001) %MON dynstat_theta_sd             =   8.6851760670270E-01
(PID.TID 0000.0001) %MON dynstat_theta_del2           =   1.3045262141091E-06
(PID.TID 0000.0001) %MON dynstat_salt_max             =   3.4700000000000E+01
(PID.TID 0000.0001) %MON dynstat_salt_min             =   3.4000000000000E+01
(PID.TID 0000.0001) %MON dynstat_salt_mean            =   3.4499205449224E+01
(PID.TID 0000.0001) %MON dynstat_salt_sd              =   2.7634201754150E-01
(PID.TID 0000.0001) %MON dynstat_salt_del2            =   4.8703638673900E-07
(PID.TID 0000.0001) %MON advcfl_uvel_max              =   7.1603219656380E-04
(PID.TID 0000.0001) %MON advcfl_vvel_max              =   6.1052680862925E-04
(PID.TID 0000.0001) %MON advcfl_wvel_max              =   1.3350495757072E-03
(PID.TID 0000.0001) %MON advcfl_W_hf_max              =   1.3350495757072E-03
(PID.TID 0000.0001) %MON pe_b_mean                    =  -8.2975671874615E-01
(PID.TID 0000.0001) %MON ke_max                       =   1.5568858580656E-05
(PID.TID 0000.0001) %MON ke_mean                      =   4.6381636997748E-08
(PID.TID 0000.0001) %MON ke_vol                       =   4.2725100522980E+12
(PID.TID 0000.0001) // =======================================================
(PID.TID 0000.0001) // End MONITOR dynamic field statistics
(PID.TID 0000.0001) // =======================================================
(PID.TID 0000.0001) // =======================================================
(PID.TID 0000.0001) // Begin OBCS MONITOR field statistics
(PID.TID 0000.0001) // =======================================================
(PID.TID 0000.0001) %MON obc_N_vVel_max               =   1.4742087469413E-05
(PID.TID 0000.0001) %MON obc_N_vVel_min               =   1.4742087469412E-05
(PID.TID 0000.0001) %MON obc_N_vVel_mean              =   1.4742087469412E-05
(PID.TID 0000.0001) %MON obc_N_vVel_sd                =   4.3171070378884E-12
(PID.TID 0000.0001) %MON obc_N_vVel_Int               =   9.7297777298121E+02
(PID.TID 0000.0001) // =======================================================
(PID.TID 0000.0001) // End OBCS MONITOR field statistics
(PID.TID 0000.0001) // =======================================================
 cg2d: Sum(rhs),rhsMax =   4.50756310977166E+00  2.99902108358925E+02
(PID.TID 0000.0001)      cg2d_init_res =   5.81799875925138E-06
(PID.TID 0000.0001)      cg2d_iters(min,last) =      -1      78
(PID.TID 0000.0001)      cg2d_last_res =   7.91629533693713E-12
(PID.TID 0000.0001) // =======================================================
(PID.TID 0000.0001) // Begin MONITOR dynamic field statistics
(PID.TID 0000.0001) // =======================================================
(PID.TID 0000.0001) %MON time_tsnumber                =                   627
(PID.TID 0000.0001) %MON time_secondsf                =   6.2700000000000E+04
(PID.TID 0000.0001) %MON dynstat_eta_max              =   5.7986840753133E+00
(PID.TID 0000.0001) %MON dynstat_eta_min              =  -1.4190438122212E+01
(PID.TID 0000.0001) %MON dynstat_eta_mean             =  -2.5033845929286E+00
(PID.TID 0000.0001) %MON dynstat_eta_sd               =   4.9497203934740E+00
(PID.TID 0000.0001) %MON dynstat_eta_del2             =   2.0714255783281E-01
(PID.TID 0000.0001) %MON dynstat_uvel_max             =   1.7628757499153E-03
(PID.TID 0000.0001) %MON dynstat_uvel_min             =  -7.1809245857315E-03
(PID.TID 0000.0001) %MON dynstat_uvel_mean            =  -1.1737283952327E-07
(PID.TID 0000.0001) %MON dynstat_uvel_sd              =   2.4668363916680E-04
(PID.TID 0000.0001) %MON dynstat_uvel_del2            =   4.1960777858469E-07
(PID.TID 0000.0001) %MON dynstat_vvel_max             =   6.1194561024767E-03
(PID.TID 0000.0001) %MON dynstat_vvel_min             =  -3.0826755401883E-03
(PID.TID 0000.0001) %MON dynstat_vvel_mean            =   1.4978203181137E-05
(PID.TID 0000.0001) %MON dynstat_vvel_sd              =   1.8214189453259E-04
(PID.TID 0000.0001) %MON dynstat_vvel_del2            =   3.9405967221078E-07
(PID.TID 0000.0001) %MON dynstat_wvel_max             =   2.4170328348481E-04
(PID.TID 0000.0001) %MON dynstat_wvel_min             =  -2.6781799034520E-04
(PID.TID 0000.0001) %MON dynstat_wvel_mean            =   6.6331495814821E-09
(PID.TID 0000.0001) %MON dynstat_wvel_sd              =   1.6858518524781E-05
(PID.TID 0000.0001) %MON dynstat_wvel_del2            =   6.8101672843987E-08
(PID.TID 0000.0001) %MON dynstat_theta_max            =   1.2000000000000E+00
(PID.TID 0000.0001) %MON dynstat_theta_min            =  -1.0000000000000E+00
(PID.TID 0000.0001) %MON dynstat_theta_mean           =   5.6897787698575E-01
(PID.TID 0000.0001) %MON dynstat_theta_sd             =   8.6851740292399E-01
(PID.TID 0000.0001) %MON dynstat_theta_del2           =   1.3053664656895E-06
(PID.TID 0000.0001) %MON dynstat_salt_max             =   3.4700000000000E+01
(PID.TID 0000.0001) %MON dynstat_salt_min             =   3.4000000000000E+01
(PID.TID 0000.0001) %MON dynstat_salt_mean            =   3.4499205297120E+01
(PID.TID 0000.0001) %MON dynstat_salt_sd              =   2.7634194093661E-01
(PID.TID 0000.0001) %MON dynstat_salt_del2            =   4.8753822580225E-07
(PID.TID 0000.0001) %MON advcfl_uvel_max              =   7.1809245857315E-04
(PID.TID 0000.0001) %MON advcfl_vvel_max              =   6.1194561024767E-04
(PID.TID 0000.0001) %MON advcfl_wvel_max              =   1.3390899517260E-03
(PID.TID 0000.0001) %MON advcfl_W_hf_max              =   1.3390899517260E-03
(PID.TID 0000.0001) %MON pe_b_mean                    =  -8.2976045764403E-01
(PID.TID 0000.0001) %MON ke_max                       =   1.5656842403414E-05
(PID.TID 0000.0001) %MON ke_mean                      =   4.6521320422887E-08
(PID.TID 0000.0001) %MON ke_vol                       =   4.2725099738981E+12
(PID.TID 0000.0001) // =======================================================
(PID.TID 0000.0001) // End MONITOR dynamic field statistics
(PID.TID 0000.0001) // =======================================================
(PID.TID 0000.0001) // =======================================================
(PID.TID 0000.0001) // Begin OBCS MONITOR field statistics
(PID.TID 0000.0001) // =======================================================
(PID.TID 0000.0001) %MON obc_N_vVel_max               =   1.4742335686182E-05
(PID.TID 0000.0001) %MON obc_N_vVel_min               =   1.4742335686181E-05
(PID.TID 0000.0001) %MON obc_N_vVel_mean              =   1.4742335686182E-05
(PID.TID 0000.0001) %MON obc_N_vVel_sd                =  -1.8172124082024E-23
(PID.TID 0000.0001) %MON obc_N_vVel_Int               =   9.7299415528799E+02
(PID.TID 0000.0001) // =======================================================
(PID.TID 0000.0001) // End OBCS MONITOR field statistics
(PID.TID 0000.0001) // =======================================================
 cg2d: Sum(rhs),rhsMax =   4.50758571549091E+00  2.99902184679727E+02
(PID.TID 0000.0001)      cg2d_init_res =   5.81935143184042E-06
(PID.TID 0000.0001)      cg2d_iters(min,last) =      -1      78
(PID.TID 0000.0001)      cg2d_last_res =   7.91451309176118E-12
(PID.TID 0000.0001) // =======================================================
(PID.TID 0000.0001) // Begin MONITOR dynamic field statistics
(PID.TID 0000.0001) // =======================================================
(PID.TID 0000.0001) %MON time_tsnumber                =                   628
(PID.TID 0000.0001) %MON time_secondsf                =   6.2800000000000E+04
(PID.TID 0000.0001) %MON dynstat_eta_max              =   5.7986716964129E+00
(PID.TID 0000.0001) %MON dynstat_eta_min              =  -1.4190462797926E+01
(PID.TID 0000.0001) %MON dynstat_eta_mean             =  -2.5033977846423E+00
(PID.TID 0000.0001) %MON dynstat_eta_sd               =   4.9497247959217E+00
(PID.TID 0000.0001) %MON dynstat_eta_del2             =   2.0714256915402E-01
(PID.TID 0000.0001) %MON dynstat_uvel_max             =   1.7658414494794E-03
(PID.TID 0000.0001) %MON dynstat_uvel_min             =  -7.2015754596659E-03
(PID.TID 0000.0001) %MON dynstat_uvel_mean            =  -1.1734289392115E-07
(PID.TID 0000.0001) %MON dynstat_uvel_sd              =   2.4711410155407E-04
(PID.TID 0000.0001) %MON dynstat_uvel_del2            =   4.2041880988804E-07
(PID.TID 0000.0001) %MON dynstat_vvel_max             =   6.1336627823039E-03
(PID.TID 0000.0001) %MON dynstat_vvel_min             =  -3.0911378599203E-03
(PID.TID 0000.0001) %MON dynstat_vvel_mean            =   1.4978072735573E-05
(PID.TID 0000.0001) %MON dynstat_vvel_sd              =   1.8240150681335E-04
(PID.TID 0000.0001) %MON dynstat_vvel_del2            =   3.9523540212200E-07
(PID.TID 0000.0001) %MON dynstat_wvel_max             =   2.4262568265963E-04
(PID.TID 0000.0001) %MON dynstat_wvel_min             =  -2.6862790795219E-04
(PID.TID 0000.0001) %MON dynstat_wvel_mean            =   6.6311072735582E-09
(PID.TID 0000.0001) %MON dynstat_wvel_sd              =   1.7009981863138E-05
(PID.TID 0000.0001) %MON dynstat_wvel_del2            =   6.8376293475714E-08
(PID.TID 0000.0001) %MON dynstat_theta_max            =   1.2000000000000E+00
(PID.TID 0000.0001) %MON dynstat_theta_min            =  -1.0000000000000E+00
(PID.TID 0000.0001) %MON dynstat_theta_mean           =   5.6897749541053E-01
(PID.TID 0000.0001) %MON dynstat_theta_sd             =   8.6851719887137E-01
(PID.TID 0000.0001) %MON dynstat_theta_del2           =   1.3055418570047E-06
(PID.TID 0000.0001) %MON dynstat_salt_max             =   3.4700000000000E+01
(PID.TID 0000.0001) %MON dynstat_salt_min             =   3.4000000000000E+01
(PID.TID 0000.0001) %MON dynstat_salt_mean            =   3.4499205144827E+01
(PID.TID 0000.0001) %MON dynstat_salt_sd              =   2.7634186422254E-01
(PID.TID 0000.0001) %MON dynstat_salt_del2            =   4.8786040945071E-07
(PID.TID 0000.0001) %MON advcfl_uvel_max              =   7.2015754596659E-04
(PID.TID 0000.0001) %MON advcfl_vvel_max              =   6.1336627823039E-04
(PID.TID 0000.0001) %MON advcfl_wvel_max              =   1.3431395397609E-03
(PID.TID 0000.0001) %MON advcfl_W_hf_max              =   1.3431395397609E-03
(PID.TID 0000.0001) %MON pe_b_mean                    =  -8.2976419517018E-01
(PID.TID 0000.0001) %MON ke_max                       =   1.5745293194059E-05
(PID.TID 0000.0001) %MON ke_mean                      =   4.6672809368046E-08
(PID.TID 0000.0001) %MON ke_vol                       =   4.2725098955180E+12
(PID.TID 0000.0001) // =======================================================
(PID.TID 0000.0001) // End MONITOR dynamic field statistics
(PID.TID 0000.0001) // =======================================================
(PID.TID 0000.0001) // =======================================================
(PID.TID 0000.0001) // Begin OBCS MONITOR field statistics
(PID.TID 0000.0001) // =======================================================
(PID.TID 0000.0001) %MON obc_N_vVel_max               =   1.4742354073131E-05
(PID.TID 0000.0001) %MON obc_N_vVel_min               =   1.4742354073130E-05
(PID.TID 0000.0001) %MON obc_N_vVel_mean              =   1.4742354073130E-05
(PID.TID 0000.0001) %MON obc_N_vVel_sd                =   4.0226509583941E-12
(PID.TID 0000.0001) %MON obc_N_vVel_Int               =   9.7299536882660E+02
(PID.TID 0000.0001) // =======================================================
(PID.TID 0000.0001) // End OBCS MONITOR field statistics
(PID.TID 0000.0001) // =======================================================
 cg2d: Sum(rhs),rhsMax =   4.50760831454715E+00  2.99902260980922E+02
(PID.TID 0000.0001)      cg2d_init_res =   5.82825425936247E-06
(PID.TID 0000.0001)      cg2d_iters(min,last) =      -1      78
(PID.TID 0000.0001)      cg2d_last_res =   7.91238016136899E-12
(PID.TID 0000.0001) // =======================================================
(PID.TID 0000.0001) // Begin MONITOR dynamic field statistics
(PID.TID 0000.0001) // =======================================================
(PID.TID 0000.0001) %MON time_tsnumber                =                   629
(PID.TID 0000.0001) %MON time_secondsf                =   6.2900000000000E+04
(PID.TID 0000.0001) %MON dynstat_eta_max              =   5.7986593420718E+00
(PID.TID 0000.0001) %MON dynstat_eta_min              =  -1.4190487471804E+01
(PID.TID 0000.0001) %MON dynstat_eta_mean             =  -2.5034109724983E+00
(PID.TID 0000.0001) %MON dynstat_eta_sd               =   4.9497291971639E+00
(PID.TID 0000.0001) %MON dynstat_eta_del2             =   2.0714258049382E-01
(PID.TID 0000.0001) %MON dynstat_uvel_max             =   1.7688025757676E-03
(PID.TID 0000.0001) %MON dynstat_uvel_min             =  -7.2222746906085E-03
(PID.TID 0000.0001) %MON dynstat_uvel_mean            =  -1.1736874748189E-07
(PID.TID 0000.0001) %MON dynstat_uvel_sd              =   2.4754608902666E-04
(PID.TID 0000.0001) %MON dynstat_uvel_del2            =   4.2123113648151E-07
(PID.TID 0000.0001) %MON dynstat_vvel_max             =   6.1478881821859E-03
(PID.TID 0000.0001) %MON dynstat_vvel_min             =  -3.0996058151311E-03
(PID.TID 0000.0001) %MON dynstat_vvel_mean            =   1.4977688566289E-05
(PID.TID 0000.0001) %MON dynstat_vvel_sd              =   1.8271706996380E-04
(PID.TID 0000.0001) %MON dynstat_vvel_del2            =   3.9688861733852E-07
(PID.TID 0000.0001) %MON dynstat_wvel_max             =   2.4355030645474E-04
(PID.TID 0000.0001) %MON dynstat_wvel_min             =  -2.6943967741142E-04
(PID.TID 0000.0001) %MON dynstat_wvel_mean            =   6.6288143884926E-09
(PID.TID 0000.0001) %MON dynstat_wvel_sd              =   1.7296323305536E-05
(PID.TID 0000.0001) %MON dynstat_wvel_del2            =   6.9509746445243E-08
(PID.TID 0000.0001) %MON dynstat_theta_max            =   1.2000000000000E+00
(PID.TID 0000.0001) %MON dynstat_theta_min            =  -1.0000000000000E+00
(PID.TID 0000.0001) %MON dynstat_theta_mean           =   5.6897711338919E-01
(PID.TID 0000.0001) %MON dynstat_theta_sd             =   8.6851699448781E-01
(PID.TID 0000.0001) %MON dynstat_theta_del2           =   1.3050984317536E-06
(PID.TID 0000.0001) %MON dynstat_salt_max             =   3.4700000000000E+01
(PID.TID 0000.0001) %MON dynstat_salt_min             =   3.4000000000000E+01
(PID.TID 0000.0001) %MON dynstat_salt_mean            =   3.4499204992357E+01
(PID.TID 0000.0001) %MON dynstat_salt_sd              =   2.7634178738140E-01
(PID.TID 0000.0001) %MON dynstat_salt_del2            =   4.8801604938326E-07
(PID.TID 0000.0001) %MON advcfl_uvel_max              =   7.2222746906085E-04
(PID.TID 0000.0001) %MON advcfl_vvel_max              =   6.1478881821859E-04
(PID.TID 0000.0001) %MON advcfl_wvel_max              =   1.3471983870571E-03
(PID.TID 0000.0001) %MON advcfl_W_hf_max              =   1.3471983870571E-03
(PID.TID 0000.0001) %MON pe_b_mean                    =  -8.2976793125669E-01
(PID.TID 0000.0001) %MON ke_max                       =   1.5834213197065E-05
(PID.TID 0000.0001) %MON ke_mean                      =   4.6835134327309E-08
(PID.TID 0000.0001) %MON ke_vol                       =   4.2725098171592E+12
(PID.TID 0000.0001) // =======================================================
(PID.TID 0000.0001) // End MONITOR dynamic field statistics
(PID.TID 0000.0001) // =======================================================
(PID.TID 0000.0001) // =======================================================
(PID.TID 0000.0001) // Begin OBCS MONITOR field statistics
(PID.TID 0000.0001) // =======================================================
(PID.TID 0000.0001) %MON obc_N_vVel_max               =   1.4742150287476E-05
(PID.TID 0000.0001) %MON obc_N_vVel_min               =   1.4742150287476E-05
(PID.TID 0000.0001) %MON obc_N_vVel_mean              =   1.4742150287476E-05
(PID.TID 0000.0001) %MON obc_N_vVel_sd                =   3.3648231208073E-12
(PID.TID 0000.0001) %MON obc_N_vVel_Int               =   9.7298191897339E+02
(PID.TID 0000.0001) // =======================================================
(PID.TID 0000.0001) // End OBCS MONITOR field statistics
(PID.TID 0000.0001) // =======================================================
 cg2d: Sum(rhs),rhsMax =   4.50763090650091E+00  2.99902337262239E+02
(PID.TID 0000.0001)      cg2d_init_res =   5.84399641706728E-06
(PID.TID 0000.0001)      cg2d_iters(min,last) =      -1      78
(PID.TID 0000.0001)      cg2d_last_res =   7.91209036457647E-12
(PID.TID 0000.0001) // =======================================================
(PID.TID 0000.0001) // Begin MONITOR dynamic field statistics
(PID.TID 0000.0001) // =======================================================
(PID.TID 0000.0001) %MON time_tsnumber                =                   630
(PID.TID 0000.0001) %MON time_secondsf                =   6.3000000000000E+04
(PID.TID 0000.0001) %MON dynstat_eta_max              =   5.7986470123037E+00
(PID.TID 0000.0001) %MON dynstat_eta_min              =  -1.4190512142942E+01
(PID.TID 0000.0001) %MON dynstat_eta_mean             =  -2.5034241562502E+00
(PID.TID 0000.0001) %MON dynstat_eta_sd               =   4.9497335971347E+00
(PID.TID 0000.0001) %MON dynstat_eta_del2             =   2.0714259185244E-01
(PID.TID 0000.0001) %MON dynstat_uvel_max             =   1.7717591863917E-03
(PID.TID 0000.0001) %MON dynstat_uvel_min             =  -7.2430223884172E-03
(PID.TID 0000.0001) %MON dynstat_uvel_mean            =  -1.1744034219859E-07
(PID.TID 0000.0001) %MON dynstat_uvel_sd              =   2.4797963352792E-04
(PID.TID 0000.0001) %MON dynstat_uvel_del2            =   4.2204496387733E-07
(PID.TID 0000.0001) %MON dynstat_vvel_max             =   6.1621323565149E-03
(PID.TID 0000.0001) %MON dynstat_vvel_min             =  -3.1080794042877E-03
(PID.TID 0000.0001) %MON dynstat_vvel_mean            =   1.4977069220189E-05
(PID.TID 0000.0001) %MON dynstat_vvel_sd              =   1.8307934305877E-04
(PID.TID 0000.0001) %MON dynstat_vvel_del2            =   3.9893314287821E-07
(PID.TID 0000.0001) %MON dynstat_wvel_max             =   2.4447716103675E-04
(PID.TID 0000.0001) %MON dynstat_wvel_min             =  -2.7025330852520E-04
(PID.TID 0000.0001) %MON dynstat_wvel_mean            =   6.6263333481322E-09
(PID.TID 0000.0001) %MON dynstat_wvel_sd              =   1.7688419416659E-05
(PID.TID 0000.0001) %MON dynstat_wvel_del2            =   7.1366991606987E-08
(PID.TID 0000.0001) %MON dynstat_theta_max            =   1.2000000000000E+00
(PID.TID 0000.0001) %MON dynstat_theta_min            =  -1.0000000000000E+00
(PID.TID 0000.0001) %MON dynstat_theta_mean           =   5.6897673095507E-01
(PID.TID 0000.0001) %MON dynstat_theta_sd             =   8.6851678972129E-01
(PID.TID 0000.0001) %MON dynstat_theta_del2           =   1.3041208154347E-06
(PID.TID 0000.0001) %MON dynstat_salt_max             =   3.4700000000000E+01
(PID.TID 0000.0001) %MON dynstat_salt_min             =   3.4000000000000E+01
(PID.TID 0000.0001) %MON dynstat_salt_mean            =   3.4499204839720E+01
(PID.TID 0000.0001) %MON dynstat_salt_sd              =   2.7634171039635E-01
(PID.TID 0000.0001) %MON dynstat_salt_del2            =   4.8802814620399E-07
(PID.TID 0000.0001) %MON advcfl_uvel_max              =   7.2430223884172E-04
(PID.TID 0000.0001) %MON advcfl_vvel_max              =   6.1621323565149E-04
(PID.TID 0000.0001) %MON advcfl_wvel_max              =   1.3512665426260E-03
(PID.TID 0000.0001) %MON advcfl_W_hf_max              =   1.3512665426260E-03
(PID.TID 0000.0001) %MON pe_b_mean                    =  -8.2977166584132E-01
(PID.TID 0000.0001) %MON ke_max                       =   1.5923604718924E-05
(PID.TID 0000.0001) %MON ke_mean                      =   4.7006666524883E-08
(PID.TID 0000.0001) %MON ke_vol                       =   4.2725097388234E+12
(PID.TID 0000.0001) // =======================================================
(PID.TID 0000.0001) // End MONITOR dynamic field statistics
(PID.TID 0000.0001) // =======================================================
(PID.TID 0000.0001) // =======================================================
(PID.TID 0000.0001) // Begin OBCS MONITOR field statistics
(PID.TID 0000.0001) // =======================================================
(PID.TID 0000.0001) %MON obc_N_vVel_max               =   1.4741737463427E-05
(PID.TID 0000.0001) %MON obc_N_vVel_min               =   1.4741737463426E-05
(PID.TID 0000.0001) %MON obc_N_vVel_mean              =   1.4741737463427E-05
(PID.TID 0000.0001) %MON obc_N_vVel_sd                =  -1.6827955586626E-23
(PID.TID 0000.0001) %MON obc_N_vVel_Int               =   9.7295467258615E+02
(PID.TID 0000.0001) // =======================================================
(PID.TID 0000.0001) // End OBCS MONITOR field statistics
(PID.TID 0000.0001) // =======================================================
 cg2d: Sum(rhs),rhsMax =   4.50765349094477E+00  2.99902413523704E+02
(PID.TID 0000.0001)      cg2d_init_res =   5.86536844077215E-06
(PID.TID 0000.0001)      cg2d_iters(min,last) =      -1      78
(PID.TID 0000.0001)      cg2d_last_res =   7.91445651863566E-12
(PID.TID 0000.0001) // =======================================================
(PID.TID 0000.0001) // Begin MONITOR dynamic field statistics
(PID.TID 0000.0001) // =======================================================
(PID.TID 0000.0001) %MON time_tsnumber                =                   631
(PID.TID 0000.0001) %MON time_secondsf                =   6.3100000000000E+04
(PID.TID 0000.0001) %MON dynstat_eta_max              =   5.7986347072071E+00
(PID.TID 0000.0001) %MON dynstat_eta_min              =  -1.4190536810644E+01
(PID.TID 0000.0001) %MON dynstat_eta_mean             =  -2.5034373356720E+00
(PID.TID 0000.0001) %MON dynstat_eta_sd               =   4.9497379957756E+00
(PID.TID 0000.0001) %MON dynstat_eta_del2             =   2.0714260322984E-01
(PID.TID 0000.0001) %MON dynstat_uvel_max             =   1.7747113490214E-03
(PID.TID 0000.0001) %MON dynstat_uvel_min             =  -7.2638186432181E-03
(PID.TID 0000.0001) %MON dynstat_uvel_mean            =  -1.1754324139630E-07
(PID.TID 0000.0001) %MON dynstat_uvel_sd              =   2.4841476783675E-04
(PID.TID 0000.0001) %MON dynstat_uvel_del2            =   4.2286051537375E-07
(PID.TID 0000.0001) %MON dynstat_vvel_max             =   6.1763953590566E-03
(PID.TID 0000.0001) %MON dynstat_vvel_min             =  -3.1165586237227E-03
(PID.TID 0000.0001) %MON dynstat_vvel_mean            =   1.4976239070464E-05
(PID.TID 0000.0001) %MON dynstat_vvel_sd              =   1.8347617701194E-04
(PID.TID 0000.0001) %MON dynstat_vvel_del2            =   4.0125678390063E-07
(PID.TID 0000.0001) %MON dynstat_wvel_max             =   2.4540625269901E-04
(PID.TID 0000.0001) %MON dynstat_wvel_min             =  -2.7106881168291E-04
(PID.TID 0000.0001) %MON dynstat_wvel_mean            =   6.6237348532432E-09
(PID.TID 0000.0001) %MON dynstat_wvel_sd              =   1.8150373068818E-05
(PID.TID 0000.0001) %MON dynstat_wvel_del2            =   7.3753410375378E-08
(PID.TID 0000.0001) %MON dynstat_theta_max            =   1.2000000000000E+00
(PID.TID 0000.0001) %MON dynstat_theta_min            =  -1.0000000000000E+00
(PID.TID 0000.0001) %MON dynstat_theta_mean           =   5.6897634814098E-01
(PID.TID 0000.0001) %MON dynstat_theta_sd             =   8.6851658453880E-01
(PID.TID 0000.0001) %MON dynstat_theta_del2           =   1.3027264306695E-06
(PID.TID 0000.0001) %MON dynstat_salt_max             =   3.4700000000000E+01
(PID.TID 0000.0001) %MON dynstat_salt_min             =   3.4000000000000E+01
(PID.TID 0000.0001) %MON dynstat_salt_mean            =   3.4499204686926E+01
(PID.TID 0000.0001) %MON dynstat_salt_sd              =   2.7634163325705E-01
(PID.TID 0000.0001) %MON dynstat_salt_del2            =   4.8792885141103E-07
(PID.TID 0000.0001) %MON advcfl_uvel_max              =   7.2638186432181E-04
(PID.TID 0000.0001) %MON advcfl_vvel_max              =   6.1763953590566E-04
(PID.TID 0000.0001) %MON advcfl_wvel_max              =   1.3553440584145E-03
(PID.TID 0000.0001) %MON advcfl_W_hf_max              =   1.3553440584145E-03
(PID.TID 0000.0001) %MON pe_b_mean                    =  -8.2977539886821E-01
(PID.TID 0000.0001) %MON ke_max                       =   1.6013469983466E-05
(PID.TID 0000.0001) %MON ke_mean                      =   4.7185238104200E-08
(PID.TID 0000.0001) %MON ke_vol                       =   4.2725096605119E+12
(PID.TID 0000.0001) // =======================================================
(PID.TID 0000.0001) // End MONITOR dynamic field statistics
(PID.TID 0000.0001) // =======================================================
(PID.TID 0000.0001) // =======================================================
(PID.TID 0000.0001) // Begin OBCS MONITOR field statistics
(PID.TID 0000.0001) // =======================================================
(PID.TID 0000.0001) %MON obc_N_vVel_max               =   1.4741133603446E-05
(PID.TID 0000.0001) %MON obc_N_vVel_min               =   1.4741133603445E-05
(PID.TID 0000.0001) %MON obc_N_vVel_mean              =   1.4741133603445E-05
(PID.TID 0000.0001) %MON obc_N_vVel_sd                =   3.9774148909910E-12
(PID.TID 0000.0001) %MON obc_N_vVel_Int               =   9.7291481782738E+02
(PID.TID 0000.0001) // =======================================================
(PID.TID 0000.0001) // End OBCS MONITOR field statistics
(PID.TID 0000.0001) // =======================================================
 cg2d: Sum(rhs),rhsMax =   4.50767606750843E+00  2.99902489765605E+02
(PID.TID 0000.0001)      cg2d_init_res =   5.89079089779728E-06
(PID.TID 0000.0001)      cg2d_iters(min,last) =      -1      78
(PID.TID 0000.0001)      cg2d_last_res =   7.91934913851031E-12
(PID.TID 0000.0001) // =======================================================
(PID.TID 0000.0001) // Begin MONITOR dynamic field statistics
(PID.TID 0000.0001) // =======================================================
(PID.TID 0000.0001) %MON time_tsnumber                =                   632
(PID.TID 0000.0001) %MON time_secondsf                =   6.3200000000000E+04
(PID.TID 0000.0001) %MON dynstat_eta_max              =   5.7986224269835E+00
(PID.TID 0000.0001) %MON dynstat_eta_min              =  -1.4190561474436E+01
(PID.TID 0000.0001) %MON dynstat_eta_mean             =  -2.5034505105604E+00
(PID.TID 0000.0001) %MON dynstat_eta_sd               =   4.9497423930411E+00
(PID.TID 0000.0001) %MON dynstat_eta_del2             =   2.0714261462614E-01
(PID.TID 0000.0001) %MON dynstat_uvel_max             =   1.7776591357157E-03
(PID.TID 0000.0001) %MON dynstat_uvel_min             =  -7.2846635555477E-03
(PID.TID 0000.0001) %MON dynstat_uvel_mean            =  -1.1766085130375E-07
(PID.TID 0000.0001) %MON dynstat_uvel_sd              =   2.4885152369680E-04
(PID.TID 0000.0001) %MON dynstat_uvel_del2            =   4.2367801074900E-07
(PID.TID 0000.0001) %MON dynstat_vvel_max             =   6.1906772442590E-03
(PID.TID 0000.0001) %MON dynstat_vvel_min             =  -3.1250434701198E-03
(PID.TID 0000.0001) %MON dynstat_vvel_mean            =   1.4975227609192E-05
(PID.TID 0000.0001) %MON dynstat_vvel_sd              =   1.8389341644228E-04
(PID.TID 0000.0001) %MON dynstat_vvel_del2            =   4.0373014003999E-07
(PID.TID 0000.0001) %MON dynstat_wvel_max             =   2.4633758775440E-04
(PID.TID 0000.0001) %MON dynstat_wvel_min             =  -2.7188619719705E-04
(PID.TID 0000.0001) %MON dynstat_wvel_mean            =   6.6210954395035E-09
(PID.TID 0000.0001) %MON dynstat_wvel_sd              =   1.8643830283591E-05
(PID.TID 0000.0001) %MON dynstat_wvel_del2            =   7.6446575062269E-08
(PID.TID 0000.0001) %MON dynstat_theta_max            =   1.2000000000000E+00
(PID.TID 0000.0001) %MON dynstat_theta_min            =  -1.0000000000000E+00
(PID.TID 0000.0001) %MON dynstat_theta_mean           =   5.6897596497839E-01
(PID.TID 0000.0001) %MON dynstat_theta_sd             =   8.6851637893698E-01
(PID.TID 0000.0001) %MON dynstat_theta_del2           =   1.3010548091701E-06
(PID.TID 0000.0001) %MON dynstat_salt_max             =   3.4700000000000E+01
(PID.TID 0000.0001) %MON dynstat_salt_min             =   3.4000000000000E+01
(PID.TID 0000.0001) %MON dynstat_salt_mean            =   3.4499204533984E+01
(PID.TID 0000.0001) %MON dynstat_salt_sd              =   2.7634155596210E-01
(PID.TID 0000.0001) %MON dynstat_salt_del2            =   4.8775614781436E-07
(PID.TID 0000.0001) %MON advcfl_uvel_max              =   7.2846635555477E-04
(PID.TID 0000.0001) %MON advcfl_vvel_max              =   6.1906772442590E-04
(PID.TID 0000.0001) %MON advcfl_wvel_max              =   1.3594309859853E-03
(PID.TID 0000.0001) %MON advcfl_W_hf_max              =   1.3594309859853E-03
(PID.TID 0000.0001) %MON pe_b_mean                    =  -8.2977913028847E-01
(PID.TID 0000.0001) %MON ke_max                       =   1.6103811272153E-05
(PID.TID 0000.0001) %MON ke_mean                      =   4.7368297468805E-08
(PID.TID 0000.0001) %MON ke_vol                       =   4.2725095822261E+12
(PID.TID 0000.0001) // =======================================================
(PID.TID 0000.0001) // End MONITOR dynamic field statistics
(PID.TID 0000.0001) // =======================================================
(PID.TID 0000.0001) // =======================================================
(PID.TID 0000.0001) // Begin OBCS MONITOR field statistics
(PID.TID 0000.0001) // =======================================================
(PID.TID 0000.0001) %MON obc_N_vVel_max               =   1.4740360944179E-05
(PID.TID 0000.0001) %MON obc_N_vVel_min               =   1.4740360944178E-05
(PID.TID 0000.0001) %MON obc_N_vVel_mean              =   1.4740360944179E-05
(PID.TID 0000.0001) %MON obc_N_vVel_sd                =  -1.9438744394996E-23
(PID.TID 0000.0001) %MON obc_N_vVel_Int               =   9.7286382231580E+02
(PID.TID 0000.0001) // =======================================================
(PID.TID 0000.0001) // End OBCS MONITOR field statistics
(PID.TID 0000.0001) // =======================================================
 cg2d: Sum(rhs),rhsMax =   4.50769863587397E+00  2.99902565988421E+02
(PID.TID 0000.0001)      cg2d_init_res =   5.91840665496519E-06
(PID.TID 0000.0001)      cg2d_iters(min,last) =      -1      78
(PID.TID 0000.0001)      cg2d_last_res =   7.92532384515537E-12
(PID.TID 0000.0001) // =======================================================
(PID.TID 0000.0001) // Begin MONITOR dynamic field statistics
(PID.TID 0000.0001) // =======================================================
(PID.TID 0000.0001) %MON time_tsnumber                =                   633
(PID.TID 0000.0001) %MON time_secondsf                =   6.3300000000000E+04
(PID.TID 0000.0001) %MON dynstat_eta_max              =   5.7986101719140E+00
(PID.TID 0000.0001) %MON dynstat_eta_min              =  -1.4190586134077E+01
(PID.TID 0000.0001) %MON dynstat_eta_mean             =  -2.5034636807428E+00
(PID.TID 0000.0001) %MON dynstat_eta_sd               =   4.9497467889022E+00
(PID.TID 0000.0001) %MON dynstat_eta_del2             =   2.0714262604140E-01
(PID.TID 0000.0001) %MON dynstat_uvel_max             =   1.7806026161287E-03
(PID.TID 0000.0001) %MON dynstat_uvel_min             =  -7.3055572249405E-03
(PID.TID 0000.0001) %MON dynstat_uvel_mean            =  -1.1777669386148E-07
(PID.TID 0000.0001) %MON dynstat_uvel_sd              =   2.4928993002781E-04
(PID.TID 0000.0001) %MON dynstat_uvel_del2            =   4.2449764540166E-07
(PID.TID 0000.0001) %MON dynstat_vvel_max             =   6.2049780685447E-03
(PID.TID 0000.0001) %MON dynstat_vvel_min             =  -3.1335339400886E-03
(PID.TID 0000.0001) %MON dynstat_vvel_mean            =   1.4974068640667E-05
(PID.TID 0000.0001) %MON dynstat_vvel_sd              =   1.8431592024192E-04
(PID.TID 0000.0001) %MON dynstat_vvel_del2            =   4.0621627933566E-07
(PID.TID 0000.0001) %MON dynstat_wvel_max             =   2.4727117252123E-04
(PID.TID 0000.0001) %MON dynstat_wvel_min             =  -2.7270547535654E-04
(PID.TID 0000.0001) %MON dynstat_wvel_mean            =   6.6184952101608E-09
(PID.TID 0000.0001) %MON dynstat_wvel_sd              =   1.9131514399313E-05
(PID.TID 0000.0001) %MON dynstat_wvel_del2            =   7.9223368182483E-08
(PID.TID 0000.0001) %MON dynstat_theta_max            =   1.2000000000000E+00
(PID.TID 0000.0001) %MON dynstat_theta_min            =  -1.0000000000000E+00
(PID.TID 0000.0001) %MON dynstat_theta_mean           =   5.6897558149728E-01
(PID.TID 0000.0001) %MON dynstat_theta_sd             =   8.6851617291826E-01
(PID.TID 0000.0001) %MON dynstat_theta_del2           =   1.2992604516796E-06
(PID.TID 0000.0001) %MON dynstat_salt_max             =   3.4700000000000E+01
(PID.TID 0000.0001) %MON dynstat_salt_min             =   3.4000000000000E+01
(PID.TID 0000.0001) %MON dynstat_salt_mean            =   3.4499204380905E+01
(PID.TID 0000.0001) %MON dynstat_salt_sd              =   2.7634147851242E-01
(PID.TID 0000.0001) %MON dynstat_salt_del2            =   4.8755198700599E-07
(PID.TID 0000.0001) %MON advcfl_uvel_max              =   7.3055572249405E-04
(PID.TID 0000.0001) %MON advcfl_vvel_max              =   6.2049780685447E-04
(PID.TID 0000.0001) %MON advcfl_wvel_max              =   1.3635273767827E-03
(PID.TID 0000.0001) %MON advcfl_W_hf_max              =   1.3635273767827E-03
(PID.TID 0000.0001) %MON pe_b_mean                    =  -8.2978286006282E-01
(PID.TID 0000.0001) %MON ke_max                       =   1.6194630872315E-05
(PID.TID 0000.0001) %MON ke_mean                      =   4.7553089192955E-08
(PID.TID 0000.0001) %MON ke_vol                       =   4.2725095039673E+12
(PID.TID 0000.0001) // =======================================================
(PID.TID 0000.0001) // End MONITOR dynamic field statistics
(PID.TID 0000.0001) // =======================================================
(PID.TID 0000.0001) // =======================================================
(PID.TID 0000.0001) // Begin OBCS MONITOR field statistics
(PID.TID 0000.0001) // =======================================================
(PID.TID 0000.0001) %MON obc_N_vVel_max               =   1.4739445370042E-05
(PID.TID 0000.0001) %MON obc_N_vVel_min               =   1.4739445370042E-05
(PID.TID 0000.0001) %MON obc_N_vVel_mean              =   1.4739445370042E-05
(PID.TID 0000.0001) %MON obc_N_vVel_sd                =  -8.7629446142336E-24
(PID.TID 0000.0001) %MON obc_N_vVel_Int               =   9.7280339442278E+02
(PID.TID 0000.0001) // =======================================================
(PID.TID 0000.0001) // End OBCS MONITOR field statistics
(PID.TID 0000.0001) // =======================================================
 cg2d: Sum(rhs),rhsMax =   4.50772119578085E+00  2.99902642192777E+02
(PID.TID 0000.0001)      cg2d_init_res =   5.94624168836872E-06
(PID.TID 0000.0001)      cg2d_iters(min,last) =      -1      78
(PID.TID 0000.0001)      cg2d_last_res =   7.93015393189224E-12
(PID.TID 0000.0001) // =======================================================
(PID.TID 0000.0001) // Begin MONITOR dynamic field statistics
(PID.TID 0000.0001) // =======================================================
(PID.TID 0000.0001) %MON time_tsnumber                =                   634
(PID.TID 0000.0001) %MON time_secondsf                =   6.3400000000000E+04
(PID.TID 0000.0001) %MON dynstat_eta_max              =   5.7985979423265E+00
(PID.TID 0000.0001) %MON dynstat_eta_min              =  -1.4190610789541E+01
(PID.TID 0000.0001) %MON dynstat_eta_mean             =  -2.5034768460797E+00
(PID.TID 0000.0001) %MON dynstat_eta_sd               =   4.9497511833449E+00
(PID.TID 0000.0001) %MON dynstat_eta_del2             =   2.0714263747578E-01
(PID.TID 0000.0001) %MON dynstat_uvel_max             =   1.7835418513332E-03
(PID.TID 0000.0001) %MON dynstat_uvel_min             =  -7.3264997501266E-03
(PID.TID 0000.0001) %MON dynstat_uvel_mean            =  -1.1787641696538E-07
(PID.TID 0000.0001) %MON dynstat_uvel_sd              =   2.4973001110596E-04
(PID.TID 0000.0001) %MON dynstat_uvel_del2            =   4.2531956988869E-07
(PID.TID 0000.0001) %MON dynstat_vvel_max             =   6.2192978909570E-03
(PID.TID 0000.0001) %MON dynstat_vvel_min             =  -3.1420300308733E-03
(PID.TID 0000.0001) %MON dynstat_vvel_mean            =   1.4972799225254E-05
(PID.TID 0000.0001) %MON dynstat_vvel_sd              =   1.8472862441078E-04
(PID.TID 0000.0001) %MON dynstat_vvel_del2            =   4.0858042396392E-07
(PID.TID 0000.0001) %MON dynstat_wvel_max             =   2.4820701328386E-04
(PID.TID 0000.0001) %MON dynstat_wvel_min             =  -2.7352665640780E-04
(PID.TID 0000.0001) %MON dynstat_wvel_mean            =   6.6160144175132E-09
(PID.TID 0000.0001) %MON dynstat_wvel_sd              =   1.9579699312403E-05
(PID.TID 0000.0001) %MON dynstat_wvel_del2            =   8.1878339484100E-08
(PID.TID 0000.0001) %MON dynstat_theta_max            =   1.2000000000000E+00
(PID.TID 0000.0001) %MON dynstat_theta_min            =  -1.0000000000000E+00
(PID.TID 0000.0001) %MON dynstat_theta_mean           =   5.6897519772547E-01
(PID.TID 0000.0001) %MON dynstat_theta_sd             =   8.6851596649002E-01
(PID.TID 0000.0001) %MON dynstat_theta_del2           =   1.2975022634941E-06
(PID.TID 0000.0001) %MON dynstat_salt_max             =   3.4700000000000E+01
(PID.TID 0000.0001) %MON dynstat_salt_min             =   3.4000000000000E+01
(PID.TID 0000.0001) %MON dynstat_salt_mean            =   3.4499204227697E+01
(PID.TID 0000.0001) %MON dynstat_salt_sd              =   2.7634140091010E-01
(PID.TID 0000.0001) %MON dynstat_salt_del2            =   4.8735921898374E-07
(PID.TID 0000.0001) %MON advcfl_uvel_max              =   7.3264997501266E-04
(PID.TID 0000.0001) %MON advcfl_vvel_max              =   6.2192978909570E-04
(PID.TID 0000.0001) %MON advcfl_wvel_max              =   1.3676332820390E-03
(PID.TID 0000.0001) %MON advcfl_W_hf_max              =   1.3676332820390E-03
(PID.TID 0000.0001) %MON pe_b_mean                    =  -8.2978658816191E-01
(PID.TID 0000.0001) %MON ke_max                       =   1.6285931074752E-05
(PID.TID 0000.0001) %MON ke_mean                      =   4.7736845948292E-08
(PID.TID 0000.0001) %MON ke_vol                       =   4.2725094257364E+12
(PID.TID 0000.0001) // =======================================================
(PID.TID 0000.0001) // End MONITOR dynamic field statistics
(PID.TID 0000.0001) // =======================================================
(PID.TID 0000.0001) // =======================================================
(PID.TID 0000.0001) // Begin OBCS MONITOR field statistics
(PID.TID 0000.0001) // =======================================================
(PID.TID 0000.0001) %MON obc_N_vVel_max               =   1.4738415799255E-05
(PID.TID 0000.0001) %MON obc_N_vVel_min               =   1.4738415799255E-05
(PID.TID 0000.0001) %MON obc_N_vVel_mean              =   1.4738415799255E-05
(PID.TID 0000.0001) %MON obc_N_vVel_sd                =  -1.2252612823442E-23
(PID.TID 0000.0001) %MON obc_N_vVel_Int               =   9.7273544275081E+02
(PID.TID 0000.0001) // =======================================================
(PID.TID 0000.0001) // End OBCS MONITOR field statistics
(PID.TID 0000.0001) // =======================================================
 cg2d: Sum(rhs),rhsMax =   4.50774374702614E+00  2.99902718379394E+02
(PID.TID 0000.0001)      cg2d_init_res =   5.97233235566312E-06
(PID.TID 0000.0001)      cg2d_iters(min,last) =      -1      78
(PID.TID 0000.0001)      cg2d_last_res =   7.93120230959789E-12
(PID.TID 0000.0001) // =======================================================
(PID.TID 0000.0001) // Begin MONITOR dynamic field statistics
(PID.TID 0000.0001) // =======================================================
(PID.TID 0000.0001) %MON time_tsnumber                =                   635
(PID.TID 0000.0001) %MON time_secondsf                =   6.3500000000000E+04
(PID.TID 0000.0001) %MON dynstat_eta_max              =   5.7985857385645E+00
(PID.TID 0000.0001) %MON dynstat_eta_min              =  -1.4190635440979E+01
(PID.TID 0000.0001) %MON dynstat_eta_mean             =  -2.5034900064646E+00
(PID.TID 0000.0001) %MON dynstat_eta_sd               =   4.9497555763699E+00
(PID.TID 0000.0001) %MON dynstat_eta_del2             =   2.0714264892936E-01
(PID.TID 0000.0001) %MON dynstat_uvel_max             =   1.7864768901379E-03
(PID.TID 0000.0001) %MON dynstat_uvel_min             =  -7.3474912301705E-03
(PID.TID 0000.0001) %MON dynstat_uvel_mean            =  -1.1794930497274E-07
(PID.TID 0000.0001) %MON dynstat_uvel_sd              =   2.5017178498382E-04
(PID.TID 0000.0001) %MON dynstat_uvel_del2            =   4.2614387197117E-07
(PID.TID 0000.0001) %MON dynstat_vvel_max             =   6.2336367736702E-03
(PID.TID 0000.0001) %MON dynstat_vvel_min             =  -3.1505317416212E-03
(PID.TID 0000.0001) %MON dynstat_vvel_mean            =   1.4971458619760E-05
(PID.TID 0000.0001) %MON dynstat_vvel_sd              =   1.8511757214010E-04
(PID.TID 0000.0001) %MON dynstat_vvel_del2            =   4.1069894894666E-07
(PID.TID 0000.0001) %MON dynstat_wvel_max             =   2.4914511623748E-04
(PID.TID 0000.0001) %MON dynstat_wvel_min             =  -2.7434975049445E-04
(PID.TID 0000.0001) %MON dynstat_wvel_mean            =   6.6137293248958E-09
(PID.TID 0000.0001) %MON dynstat_wvel_sd              =   1.9959729454030E-05
(PID.TID 0000.0001) %MON dynstat_wvel_del2            =   8.4233928587560E-08
(PID.TID 0000.0001) %MON dynstat_theta_max            =   1.2000000000000E+00
(PID.TID 0000.0001) %MON dynstat_theta_min            =  -1.0000000000000E+00
(PID.TID 0000.0001) %MON dynstat_theta_mean           =   5.6897481368773E-01
(PID.TID 0000.0001) %MON dynstat_theta_sd             =   8.6851575965334E-01
(PID.TID 0000.0001) %MON dynstat_theta_del2           =   1.2959324527012E-06
(PID.TID 0000.0001) %MON dynstat_salt_max             =   3.4700000000000E+01
(PID.TID 0000.0001) %MON dynstat_salt_min             =   3.4000000000000E+01
(PID.TID 0000.0001) %MON dynstat_salt_mean            =   3.4499204074368E+01
(PID.TID 0000.0001) %MON dynstat_salt_sd              =   2.7634132315553E-01
(PID.TID 0000.0001) %MON dynstat_salt_del2            =   4.8721881710150E-07
(PID.TID 0000.0001) %MON advcfl_uvel_max              =   7.3474912301705E-04
(PID.TID 0000.0001) %MON advcfl_vvel_max              =   6.2336367736702E-04
(PID.TID 0000.0001) %MON advcfl_wvel_max              =   1.3717487524722E-03
(PID.TID 0000.0001) %MON advcfl_W_hf_max              =   1.3717487524722E-03
(PID.TID 0000.0001) %MON pe_b_mean                    =  -8.2979031456564E-01
(PID.TID 0000.0001) %MON ke_max                       =   1.6377714175743E-05
(PID.TID 0000.0001) %MON ke_mean                      =   4.7916979259234E-08
(PID.TID 0000.0001) %MON ke_vol                       =   4.2725093475343E+12
(PID.TID 0000.0001) // =======================================================
(PID.TID 0000.0001) // End MONITOR dynamic field statistics
(PID.TID 0000.0001) // =======================================================
(PID.TID 0000.0001) // =======================================================
(PID.TID 0000.0001) // Begin OBCS MONITOR field statistics
(PID.TID 0000.0001) // =======================================================
(PID.TID 0000.0001) %MON obc_N_vVel_max               =   1.4737303546740E-05
(PID.TID 0000.0001) %MON obc_N_vVel_min               =   1.4737303546740E-05
(PID.TID 0000.0001) %MON obc_N_vVel_mean              =   1.4737303546740E-05
(PID.TID 0000.0001) %MON obc_N_vVel_sd                =  -1.6104172550642E-23
(PID.TID 0000.0001) %MON obc_N_vVel_Int               =   9.7266203408487E+02
(PID.TID 0000.0001) // =======================================================
(PID.TID 0000.0001) // End OBCS MONITOR field statistics
(PID.TID 0000.0001) // =======================================================
 cg2d: Sum(rhs),rhsMax =   4.50776628946194E+00  2.99902794549043E+02
(PID.TID 0000.0001)      cg2d_init_res =   5.99486272621073E-06
(PID.TID 0000.0001)      cg2d_iters(min,last) =      -1      78
(PID.TID 0000.0001)      cg2d_last_res =   7.92619424205844E-12
(PID.TID 0000.0001) // =======================================================
(PID.TID 0000.0001) // Begin MONITOR dynamic field statistics
(PID.TID 0000.0001) // =======================================================
(PID.TID 0000.0001) %MON time_tsnumber                =                   636
(PID.TID 0000.0001) %MON time_secondsf                =   6.3600000000000E+04
(PID.TID 0000.0001) %MON dynstat_eta_max              =   5.7985735609420E+00
(PID.TID 0000.0001) %MON dynstat_eta_min              =  -1.4190660088700E+01
(PID.TID 0000.0001) %MON dynstat_eta_mean             =  -2.5035031618215E+00
(PID.TID 0000.0001) %MON dynstat_eta_sd               =   4.9497599679886E+00
(PID.TID 0000.0001) %MON dynstat_eta_del2             =   2.0714266040232E-01
(PID.TID 0000.0001) %MON dynstat_uvel_max             =   1.7894077665246E-03
(PID.TID 0000.0001) %MON dynstat_uvel_min             =  -7.3685317649028E-03
(PID.TID 0000.0001) %MON dynstat_uvel_mean            =  -1.1798914782144E-07
(PID.TID 0000.0001) %MON dynstat_uvel_sd              =   2.5061526217152E-04
(PID.TID 0000.0001) %MON dynstat_uvel_del2            =   4.2697056266433E-07
(PID.TID 0000.0001) %MON dynstat_vvel_max             =   6.2479947821581E-03
(PID.TID 0000.0001) %MON dynstat_vvel_min             =  -3.1590390739895E-03
(PID.TID 0000.0001) %MON dynstat_vvel_mean            =   1.4970087131796E-05
(PID.TID 0000.0001) %MON dynstat_vvel_sd              =   1.8547084270830E-04
(PID.TID 0000.0001) %MON dynstat_vvel_del2            =   4.1246718044293E-07
(PID.TID 0000.0001) %MON dynstat_wvel_max             =   2.5008548749331E-04
(PID.TID 0000.0001) %MON dynstat_wvel_min             =  -2.7517476731821E-04
(PID.TID 0000.0001) %MON dynstat_wvel_mean            =   6.6117088429127E-09
(PID.TID 0000.0001) %MON dynstat_wvel_sd              =   2.0248846599888E-05
(PID.TID 0000.0001) %MON dynstat_wvel_del2            =   8.6145087804872E-08
(PID.TID 0000.0001) %MON dynstat_theta_max            =   1.2000000000000E+00
(PID.TID 0000.0001) %MON dynstat_theta_min            =  -1.0000000000000E+00
(PID.TID 0000.0001) %MON dynstat_theta_mean           =   5.6897442940491E-01
(PID.TID 0000.0001) %MON dynstat_theta_sd             =   8.6851555241000E-01
(PID.TID 0000.0001) %MON dynstat_theta_del2           =   1.2946868073263E-06
(PID.TID 0000.0001) %MON dynstat_salt_max             =   3.4700000000000E+01
(PID.TID 0000.0001) %MON dynstat_salt_min             =   3.4000000000000E+01
(PID.TID 0000.0001) %MON dynstat_salt_mean            =   3.4499203920924E+01
(PID.TID 0000.0001) %MON dynstat_salt_sd              =   2.7634124524911E-01
(PID.TID 0000.0001) %MON dynstat_salt_del2            =   4.8716714293329E-07
(PID.TID 0000.0001) %MON advcfl_uvel_max              =   7.3685317649028E-04
(PID.TID 0000.0001) %MON advcfl_vvel_max              =   6.2479947821581E-04
(PID.TID 0000.0001) %MON advcfl_wvel_max              =   1.3758738365910E-03
(PID.TID 0000.0001) %MON advcfl_W_hf_max              =   1.3758738365910E-03
(PID.TID 0000.0001) %MON pe_b_mean                    =  -8.2979403926269E-01
(PID.TID 0000.0001) %MON ke_max                       =   1.6469982477445E-05
(PID.TID 0000.0001) %MON ke_mean                      =   4.8091255965701E-08
(PID.TID 0000.0001) %MON ke_vol                       =   4.2725092693616E+12
(PID.TID 0000.0001) // =======================================================
(PID.TID 0000.0001) // End MONITOR dynamic field statistics
(PID.TID 0000.0001) // =======================================================
(PID.TID 0000.0001) // =======================================================
(PID.TID 0000.0001) // Begin OBCS MONITOR field statistics
(PID.TID 0000.0001) // =======================================================
(PID.TID 0000.0001) %MON obc_N_vVel_max               =   1.4736141518744E-05
(PID.TID 0000.0001) %MON obc_N_vVel_min               =   1.4736141518743E-05
(PID.TID 0000.0001) %MON obc_N_vVel_mean              =   1.4736141518744E-05
(PID.TID 0000.0001) %MON obc_N_vVel_sd                =  -2.7141863849396E-23
(PID.TID 0000.0001) %MON obc_N_vVel_Int               =   9.7258534023710E+02
(PID.TID 0000.0001) // =======================================================
(PID.TID 0000.0001) // End OBCS MONITOR field statistics
(PID.TID 0000.0001) // =======================================================
 cg2d: Sum(rhs),rhsMax =   4.50778882301738E+00  2.99902870702461E+02
(PID.TID 0000.0001)      cg2d_init_res =   6.01228684883994E-06
(PID.TID 0000.0001)      cg2d_iters(min,last) =      -1      78
(PID.TID 0000.0001)      cg2d_last_res =   7.91388280330866E-12
(PID.TID 0000.0001) // =======================================================
(PID.TID 0000.0001) // Begin MONITOR dynamic field statistics
(PID.TID 0000.0001) // =======================================================
(PID.TID 0000.0001) %MON time_tsnumber                =                   637
(PID.TID 0000.0001) %MON time_secondsf                =   6.3700000000000E+04
(PID.TID 0000.0001) %MON dynstat_eta_max              =   5.7985614097009E+00
(PID.TID 0000.0001) %MON dynstat_eta_min              =  -1.4190684733107E+01
(PID.TID 0000.0001) %MON dynstat_eta_mean             =  -2.5035163121174E+00
(PID.TID 0000.0001) %MON dynstat_eta_sd               =   4.9497643582263E+00
(PID.TID 0000.0001) %MON dynstat_eta_del2             =   2.0714267189470E-01
(PID.TID 0000.0001) %MON dynstat_uvel_max             =   1.7923344985775E-03
(PID.TID 0000.0001) %MON dynstat_uvel_min             =  -7.3896214548181E-03
(PID.TID 0000.0001) %MON dynstat_uvel_mean            =  -1.1799443587211E-07
(PID.TID 0000.0001) %MON dynstat_uvel_sd              =   2.5106044483888E-04
(PID.TID 0000.0001) %MON dynstat_uvel_del2            =   4.2779956636966E-07
(PID.TID 0000.0001) %MON dynstat_vvel_max             =   6.2623719849073E-03
(PID.TID 0000.0001) %MON dynstat_vvel_min             =  -3.1675520323819E-03
(PID.TID 0000.0001) %MON dynstat_vvel_mean            =   1.4968724967593E-05
(PID.TID 0000.0001) %MON dynstat_vvel_sd              =   1.8577932110922E-04
(PID.TID 0000.0001) %MON dynstat_vvel_del2            =   4.1380565695081E-07
(PID.TID 0000.0001) %MON dynstat_wvel_max             =   2.5102813307359E-04
(PID.TID 0000.0001) %MON dynstat_wvel_min             =  -2.7600171634949E-04
(PID.TID 0000.0001) %MON dynstat_wvel_mean            =   6.6100117968982E-09
(PID.TID 0000.0001) %MON dynstat_wvel_sd              =   2.0430580336269E-05
(PID.TID 0000.0001) %MON dynstat_wvel_del2            =   8.7500772362172E-08
(PID.TID 0000.0001) %MON dynstat_theta_max            =   1.2000000000000E+00
(PID.TID 0000.0001) %MON dynstat_theta_min            =  -1.0000000000000E+00
(PID.TID 0000.0001) %MON dynstat_theta_mean           =   5.6897404489480E-01
(PID.TID 0000.0001) %MON dynstat_theta_sd             =   8.6851534475609E-01
(PID.TID 0000.0001) %MON dynstat_theta_del2           =   1.2938752623606E-06
(PID.TID 0000.0001) %MON dynstat_salt_max             =   3.4700000000000E+01
(PID.TID 0000.0001) %MON dynstat_salt_min             =   3.4000000000000E+01
(PID.TID 0000.0001) %MON dynstat_salt_mean            =   3.4499203767371E+01
(PID.TID 0000.0001) %MON dynstat_salt_sd              =   2.7634116718971E-01
(PID.TID 0000.0001) %MON dynstat_salt_del2            =   4.8723345835682E-07
(PID.TID 0000.0001) %MON advcfl_uvel_max              =   7.3896214548181E-04
(PID.TID 0000.0001) %MON advcfl_vvel_max              =   6.2623719849073E-04
(PID.TID 0000.0001) %MON advcfl_wvel_max              =   1.3800085817474E-03
(PID.TID 0000.0001) %MON advcfl_W_hf_max              =   1.3800085817474E-03
(PID.TID 0000.0001) %MON pe_b_mean                    =  -8.2979776225342E-01
(PID.TID 0000.0001) %MON ke_max                       =   1.6562738286613E-05
(PID.TID 0000.0001) %MON ke_mean                      =   4.8257948340883E-08
(PID.TID 0000.0001) %MON ke_vol                       =   4.2725091912188E+12
(PID.TID 0000.0001) // =======================================================
(PID.TID 0000.0001) // End MONITOR dynamic field statistics
(PID.TID 0000.0001) // =======================================================
(PID.TID 0000.0001) // =======================================================
(PID.TID 0000.0001) // Begin OBCS MONITOR field statistics
(PID.TID 0000.0001) // =======================================================
(PID.TID 0000.0001) %MON obc_N_vVel_max               =   1.4734963336574E-05
(PID.TID 0000.0001) %MON obc_N_vVel_min               =   1.4734963336573E-05
(PID.TID 0000.0001) %MON obc_N_vVel_mean              =   1.4734963336574E-05
(PID.TID 0000.0001) %MON obc_N_vVel_sd                =  -7.6514206661155E-24
(PID.TID 0000.0001) %MON obc_N_vVel_Int               =   9.7250758021385E+02
(PID.TID 0000.0001) // =======================================================
(PID.TID 0000.0001) // End OBCS MONITOR field statistics
(PID.TID 0000.0001) // =======================================================
 cg2d: Sum(rhs),rhsMax =   4.50781134769071E+00  2.99902946840340E+02
(PID.TID 0000.0001)      cg2d_init_res =   6.02341868012337E-06
(PID.TID 0000.0001)      cg2d_iters(min,last) =      -1      78
(PID.TID 0000.0001)      cg2d_last_res =   7.89443113093165E-12
(PID.TID 0000.0001) // =======================================================
(PID.TID 0000.0001) // Begin MONITOR dynamic field statistics
(PID.TID 0000.0001) // =======================================================
(PID.TID 0000.0001) %MON time_tsnumber                =                   638
(PID.TID 0000.0001) %MON time_secondsf                =   6.3800000000000E+04
(PID.TID 0000.0001) %MON dynstat_eta_max              =   5.7985492849829E+00
(PID.TID 0000.0001) %MON dynstat_eta_min              =  -1.4190709374658E+01
(PID.TID 0000.0001) %MON dynstat_eta_mean             =  -2.5035294573570E+00
(PID.TID 0000.0001) %MON dynstat_eta_sd               =   4.9497687471215E+00
(PID.TID 0000.0001) %MON dynstat_eta_del2             =   2.0714268340673E-01
(PID.TID 0000.0001) %MON dynstat_uvel_max             =   1.7952570911857E-03
(PID.TID 0000.0001) %MON dynstat_uvel_min             =  -7.4107604001279E-03
(PID.TID 0000.0001) %MON dynstat_uvel_mean            =  -1.1796793792451E-07
(PID.TID 0000.0001) %MON dynstat_uvel_sd              =   2.5150732648810E-04
(PID.TID 0000.0001) %MON dynstat_uvel_del2            =   4.2863071894988E-07
(PID.TID 0000.0001) %MON dynstat_vvel_max             =   6.2767684529987E-03
(PID.TID 0000.0001) %MON dynstat_vvel_min             =  -3.1760706242974E-03
(PID.TID 0000.0001) %MON dynstat_vvel_mean            =   1.4967411074630E-05
(PID.TID 0000.0001) %MON dynstat_vvel_sd              =   1.8603726379503E-04
(PID.TID 0000.0001) %MON dynstat_vvel_del2            =   4.1466465958171E-07
(PID.TID 0000.0001) %MON dynstat_wvel_max             =   2.5197305892190E-04
(PID.TID 0000.0001) %MON dynstat_wvel_min             =  -2.7683060665214E-04
(PID.TID 0000.0001) %MON dynstat_wvel_mean            =   6.6086847087487E-09
(PID.TID 0000.0001) %MON dynstat_wvel_sd              =   2.0494894177299E-05
(PID.TID 0000.0001) %MON dynstat_wvel_del2            =   8.8224013340318E-08
(PID.TID 0000.0001) %MON dynstat_theta_max            =   1.2000000000000E+00
(PID.TID 0000.0001) %MON dynstat_theta_min            =  -1.0000000000000E+00
(PID.TID 0000.0001) %MON dynstat_theta_mean           =   5.6897366017125E-01
(PID.TID 0000.0001) %MON dynstat_theta_sd             =   8.6851513669150E-01
(PID.TID 0000.0001) %MON dynstat_theta_del2           =   1.2935745064700E-06
(PID.TID 0000.0001) %MON dynstat_salt_max             =   3.4700000000000E+01
(PID.TID 0000.0001) %MON dynstat_salt_min             =   3.4000000000000E+01
(PID.TID 0000.0001) %MON dynstat_salt_mean            =   3.4499203613713E+01
(PID.TID 0000.0001) %MON dynstat_salt_sd              =   2.7634108897685E-01
(PID.TID 0000.0001) %MON dynstat_salt_del2            =   4.8743820771567E-07
(PID.TID 0000.0001) %MON advcfl_uvel_max              =   7.4107604001279E-04
(PID.TID 0000.0001) %MON advcfl_vvel_max              =   6.2767684529987E-04
(PID.TID 0000.0001) %MON advcfl_wvel_max              =   1.3841530332607E-03
(PID.TID 0000.0001) %MON advcfl_W_hf_max              =   1.3841530332607E-03
(PID.TID 0000.0001) %MON pe_b_mean                    =  -8.2980148354810E-01
(PID.TID 0000.0001) %MON ke_max                       =   1.6655983908661E-05
(PID.TID 0000.0001) %MON ke_mean                      =   4.8415947709971E-08
(PID.TID 0000.0001) %MON ke_vol                       =   4.2725091131060E+12
(PID.TID 0000.0001) // =======================================================
(PID.TID 0000.0001) // End MONITOR dynamic field statistics
(PID.TID 0000.0001) // =======================================================
(PID.TID 0000.0001) // =======================================================
(PID.TID 0000.0001) // Begin OBCS MONITOR field statistics
(PID.TID 0000.0001) // =======================================================
(PID.TID 0000.0001) %MON obc_N_vVel_max               =   1.4733802388422E-05
(PID.TID 0000.0001) %MON obc_N_vVel_min               =   1.4733802388421E-05
(PID.TID 0000.0001) %MON obc_N_vVel_mean              =   1.4733802388421E-05
(PID.TID 0000.0001) %MON obc_N_vVel_sd                =   4.8072194003603E-12
(PID.TID 0000.0001) %MON obc_N_vVel_Int               =   9.7243095763579E+02
(PID.TID 0000.0001) // =======================================================
(PID.TID 0000.0001) // End OBCS MONITOR field statistics
(PID.TID 0000.0001) // =======================================================
 cg2d: Sum(rhs),rhsMax =   4.50783386354696E+00  2.99903022963228E+02
(PID.TID 0000.0001)      cg2d_init_res =   6.02750291856293E-06
(PID.TID 0000.0001)      cg2d_iters(min,last) =      -1      78
(PID.TID 0000.0001)      cg2d_last_res =   7.87034744285888E-12
(PID.TID 0000.0001) // =======================================================
(PID.TID 0000.0001) // Begin MONITOR dynamic field statistics
(PID.TID 0000.0001) // =======================================================
(PID.TID 0000.0001) %MON time_tsnumber                =                   639
(PID.TID 0000.0001) %MON time_secondsf                =   6.3900000000000E+04
(PID.TID 0000.0001) %MON dynstat_eta_max              =   5.7985371867960E+00
(PID.TID 0000.0001) %MON dynstat_eta_min              =  -1.4190734013832E+01
(PID.TID 0000.0001) %MON dynstat_eta_mean             =  -2.5035425975810E+00
(PID.TID 0000.0001) %MON dynstat_eta_sd               =   4.9497731347228E+00
(PID.TID 0000.0001) %MON dynstat_eta_del2             =   2.0714269493870E-01
(PID.TID 0000.0001) %MON dynstat_uvel_max             =   1.7981755346743E-03
(PID.TID 0000.0001) %MON dynstat_uvel_min             =  -7.4319487035792E-03
(PID.TID 0000.0001) %MON dynstat_uvel_mean            =  -1.1791582492065E-07
(PID.TID 0000.0001) %MON dynstat_uvel_sd              =   2.5195589192941E-04
(PID.TID 0000.0001) %MON dynstat_uvel_del2            =   4.2946376963676E-07
(PID.TID 0000.0001) %MON dynstat_vvel_max             =   6.2911842592737E-03
(PID.TID 0000.0001) %MON dynstat_vvel_min             =  -3.1845948597669E-03
(PID.TID 0000.0001) %MON dynstat_vvel_mean            =   1.4966182018719E-05
(PID.TID 0000.0001) %MON dynstat_vvel_sd              =   1.8624262915948E-04
(PID.TID 0000.0001) %MON dynstat_vvel_del2            =   4.1502690551066E-07
(PID.TID 0000.0001) %MON dynstat_wvel_max             =   2.5292027091783E-04
(PID.TID 0000.0001) %MON dynstat_wvel_min             =  -2.7766144696840E-04
(PID.TID 0000.0001) %MON dynstat_wvel_mean            =   6.6077602611018E-09
(PID.TID 0000.0001) %MON dynstat_wvel_sd              =   2.0438207664146E-05
(PID.TID 0000.0001) %MON dynstat_wvel_del2            =   8.8271560654815E-08
(PID.TID 0000.0001) %MON dynstat_theta_max            =   1.2000000000000E+00
(PID.TID 0000.0001) %MON dynstat_theta_min            =  -1.0000000000000E+00
(PID.TID 0000.0001) %MON dynstat_theta_mean           =   5.6897327524381E-01
(PID.TID 0000.0001) %MON dynstat_theta_sd             =   8.6851492822766E-01
(PID.TID 0000.0001) %MON dynstat_theta_del2           =   1.2938234065483E-06
(PID.TID 0000.0001) %MON dynstat_salt_max             =   3.4700000000000E+01
(PID.TID 0000.0001) %MON dynstat_salt_min             =   3.4000000000000E+01
(PID.TID 0000.0001) %MON dynstat_salt_mean            =   3.4499203459952E+01
(PID.TID 0000.0001) %MON dynstat_salt_sd              =   2.7634101061461E-01
(PID.TID 0000.0001) %MON dynstat_salt_del2            =   4.8779161418506E-07
(PID.TID 0000.0001) %MON advcfl_uvel_max              =   7.4319487035792E-04
(PID.TID 0000.0001) %MON advcfl_vvel_max              =   6.2911842592737E-04
(PID.TID 0000.0001) %MON advcfl_wvel_max              =   1.3883072348420E-03
(PID.TID 0000.0001) %MON advcfl_W_hf_max              =   1.3883072348420E-03
(PID.TID 0000.0001) %MON pe_b_mean                    =  -8.2980520316597E-01
(PID.TID 0000.0001) %MON ke_max                       =   1.6749721662893E-05
(PID.TID 0000.0001) %MON ke_mean                      =   4.8564833792976E-08
(PID.TID 0000.0001) %MON ke_vol                       =   4.2725090350233E+12
(PID.TID 0000.0001) // =======================================================
(PID.TID 0000.0001) // End MONITOR dynamic field statistics
(PID.TID 0000.0001) // =======================================================
(PID.TID 0000.0001) // =======================================================
(PID.TID 0000.0001) // Begin OBCS MONITOR field statistics
(PID.TID 0000.0001) // =======================================================
(PID.TID 0000.0001) %MON obc_N_vVel_max               =   1.4732690877643E-05
(PID.TID 0000.0001) %MON obc_N_vVel_min               =   1.4732690877643E-05
(PID.TID 0000.0001) %MON obc_N_vVel_mean              =   1.4732690877643E-05
(PID.TID 0000.0001) %MON obc_N_vVel_sd                =   2.8262099691929E-12
(PID.TID 0000.0001) %MON obc_N_vVel_Int               =   9.7235759792442E+02
(PID.TID 0000.0001) // =======================================================
(PID.TID 0000.0001) // End OBCS MONITOR field statistics
(PID.TID 0000.0001) // =======================================================
 cg2d: Sum(rhs),rhsMax =   4.50785637071150E+00  2.99903099071569E+02
(PID.TID 0000.0001)      cg2d_init_res =   6.02425756935323E-06
(PID.TID 0000.0001)      cg2d_iters(min,last) =      -1      78
(PID.TID 0000.0001)      cg2d_last_res =   7.84478968876263E-12
(PID.TID 0000.0001) // =======================================================
(PID.TID 0000.0001) // Begin MONITOR dynamic field statistics
(PID.TID 0000.0001) // =======================================================
(PID.TID 0000.0001) %MON time_tsnumber                =                   640
(PID.TID 0000.0001) %MON time_secondsf                =   6.4000000000000E+04
(PID.TID 0000.0001) %MON dynstat_eta_max              =   5.7985251150054E+00
(PID.TID 0000.0001) %MON dynstat_eta_min              =  -1.4190758651081E+01
(PID.TID 0000.0001) %MON dynstat_eta_mean             =  -2.5035557328628E+00
(PID.TID 0000.0001) %MON dynstat_eta_sd               =   4.9497775210842E+00
(PID.TID 0000.0001) %MON dynstat_eta_del2             =   2.0714270649078E-01
(PID.TID 0000.0001) %MON dynstat_uvel_max             =   1.8010898115917E-03
(PID.TID 0000.0001) %MON dynstat_uvel_min             =  -7.4531864655540E-03
(PID.TID 0000.0001) %MON dynstat_uvel_mean            =  -1.1784653897249E-07
(PID.TID 0000.0001) %MON dynstat_uvel_sd              =   2.5240611824109E-04
(PID.TID 0000.0001) %MON dynstat_uvel_del2            =   4.3029838845434E-07
(PID.TID 0000.0001) %MON dynstat_vvel_max             =   6.3056194776578E-03
(PID.TID 0000.0001) %MON dynstat_vvel_min             =  -3.1931247507542E-03
(PID.TID 0000.0001) %MON dynstat_vvel_mean            =   1.4965070978122E-05
(PID.TID 0000.0001) %MON dynstat_vvel_sd              =   1.8639715797480E-04
(PID.TID 0000.0001) %MON dynstat_vvel_del2            =   4.1490837746314E-07
(PID.TID 0000.0001) %MON dynstat_wvel_max             =   2.5386977491132E-04
(PID.TID 0000.0001) %MON dynstat_wvel_min             =  -2.7849424591046E-04
(PID.TID 0000.0001) %MON dynstat_wvel_mean            =   6.6072572475655E-09
(PID.TID 0000.0001) %MON dynstat_wvel_sd              =   2.0263357312013E-05
(PID.TID 0000.0001) %MON dynstat_wvel_del2            =   8.7633597311819E-08
(PID.TID 0000.0001) %MON dynstat_theta_max            =   1.2000000000000E+00
(PID.TID 0000.0001) %MON dynstat_theta_min            =  -1.0000000000000E+00
(PID.TID 0000.0001) %MON dynstat_theta_mean           =   5.6897289011746E-01
(PID.TID 0000.0001) %MON dynstat_theta_sd             =   8.6851471938051E-01
(PID.TID 0000.0001) %MON dynstat_theta_del2           =   1.2946209835773E-06
(PID.TID 0000.0001) %MON dynstat_salt_max             =   3.4700000000000E+01
(PID.TID 0000.0001) %MON dynstat_salt_min             =   3.4000000000000E+01
(PID.TID 0000.0001) %MON dynstat_salt_mean            =   3.4499203306091E+01
(PID.TID 0000.0001) %MON dynstat_salt_sd              =   2.7634093210762E-01
(PID.TID 0000.0001) %MON dynstat_salt_del2            =   4.8829306067802E-07
(PID.TID 0000.0001) %MON advcfl_uvel_max              =   7.4531864655540E-04
(PID.TID 0000.0001) %MON advcfl_vvel_max              =   6.3056194776578E-04
(PID.TID 0000.0001) %MON advcfl_wvel_max              =   1.3924712295523E-03
(PID.TID 0000.0001) %MON advcfl_W_hf_max              =   1.3924712295523E-03
(PID.TID 0000.0001) %MON pe_b_mean                    =  -8.2980892113409E-01
(PID.TID 0000.0001) %MON ke_max                       =   1.6843953863310E-05
(PID.TID 0000.0001) %MON ke_mean                      =   4.8704895688567E-08
(PID.TID 0000.0001) %MON ke_vol                       =   4.2725089569704E+12
(PID.TID 0000.0001) // =======================================================
(PID.TID 0000.0001) // End MONITOR dynamic field statistics
(PID.TID 0000.0001) // =======================================================
(PID.TID 0000.0001) // =======================================================
(PID.TID 0000.0001) // Begin OBCS MONITOR field statistics
(PID.TID 0000.0001) // =======================================================
(PID.TID 0000.0001) %MON obc_N_vVel_max               =   1.4731658903432E-05
(PID.TID 0000.0001) %MON obc_N_vVel_min               =   1.4731658903432E-05
(PID.TID 0000.0001) %MON obc_N_vVel_mean              =   1.4731658903432E-05
(PID.TID 0000.0001) %MON obc_N_vVel_sd                =   1.6862483078275E-12
(PID.TID 0000.0001) %MON obc_N_vVel_Int               =   9.7228948762650E+02
(PID.TID 0000.0001) // =======================================================
(PID.TID 0000.0001) // End OBCS MONITOR field statistics
(PID.TID 0000.0001) // =======================================================
 cg2d: Sum(rhs),rhsMax =   4.50787886936720E+00  2.99903175165610E+02
(PID.TID 0000.0001)      cg2d_init_res =   6.01389608765933E-06
(PID.TID 0000.0001)      cg2d_iters(min,last) =      -1      78
(PID.TID 0000.0001)      cg2d_last_res =   7.82167896673903E-12
(PID.TID 0000.0001) // =======================================================
(PID.TID 0000.0001) // Begin MONITOR dynamic field statistics
(PID.TID 0000.0001) // =======================================================
(PID.TID 0000.0001) %MON time_tsnumber                =                   641
(PID.TID 0000.0001) %MON time_secondsf                =   6.4100000000000E+04
(PID.TID 0000.0001) %MON dynstat_eta_max              =   5.7985130693257E+00
(PID.TID 0000.0001) %MON dynstat_eta_min              =  -1.4190783286822E+01
(PID.TID 0000.0001) %MON dynstat_eta_mean             =  -2.5035688633059E+00
(PID.TID 0000.0001) %MON dynstat_eta_sd               =   4.9497819062647E+00
(PID.TID 0000.0001) %MON dynstat_eta_del2             =   2.0714271806309E-01
(PID.TID 0000.0001) %MON dynstat_uvel_max             =   1.8039999012744E-03
(PID.TID 0000.0001) %MON dynstat_uvel_min             =  -7.4744737868944E-03
(PID.TID 0000.0001) %MON dynstat_uvel_mean            =  -1.1776954943387E-07
(PID.TID 0000.0001) %MON dynstat_uvel_sd              =   2.5285797607084E-04
(PID.TID 0000.0001) %MON dynstat_uvel_del2            =   4.3113418066268E-07
(PID.TID 0000.0001) %MON dynstat_vvel_max             =   6.3200741818266E-03
(PID.TID 0000.0001) %MON dynstat_vvel_min             =  -3.2016603111709E-03
(PID.TID 0000.0001) %MON dynstat_vvel_mean            =   1.4964106847453E-05
(PID.TID 0000.0001) %MON dynstat_vvel_sd              =   1.8650620130333E-04
(PID.TID 0000.0001) %MON dynstat_vvel_del2            =   4.1435726161720E-07
(PID.TID 0000.0001) %MON dynstat_wvel_max             =   2.5482157674269E-04
(PID.TID 0000.0001) %MON dynstat_wvel_min             =  -2.7932901183091E-04
(PID.TID 0000.0001) %MON dynstat_wvel_mean            =   6.6071810732299E-09
(PID.TID 0000.0001) %MON dynstat_wvel_sd              =   1.9979515005376E-05
(PID.TID 0000.0001) %MON dynstat_wvel_del2            =   8.6333732641612E-08
(PID.TID 0000.0001) %MON dynstat_theta_max            =   1.2000000000000E+00
(PID.TID 0000.0001) %MON dynstat_theta_min            =  -1.0000000000000E+00
(PID.TID 0000.0001) %MON dynstat_theta_mean           =   5.6897250479255E-01
(PID.TID 0000.0001) %MON dynstat_theta_sd             =   8.6851451016197E-01
(PID.TID 0000.0001) %MON dynstat_theta_del2           =   1.2959268867026E-06
(PID.TID 0000.0001) %MON dynstat_salt_max             =   3.4700000000000E+01
(PID.TID 0000.0001) %MON dynstat_salt_min             =   3.4000000000000E+01
(PID.TID 0000.0001) %MON dynstat_salt_mean            =   3.4499203152130E+01
(PID.TID 0000.0001) %MON dynstat_salt_sd              =   2.7634085345965E-01
(PID.TID 0000.0001) %MON dynstat_salt_del2            =   4.8893157741009E-07
(PID.TID 0000.0001) %MON advcfl_uvel_max              =   7.4744737868944E-04
(PID.TID 0000.0001) %MON advcfl_vvel_max              =   6.3200741818266E-04
(PID.TID 0000.0001) %MON advcfl_wvel_max              =   1.3966450591545E-03
(PID.TID 0000.0001) %MON advcfl_W_hf_max              =   1.3966450591545E-03
(PID.TID 0000.0001) %MON pe_b_mean                    =  -8.2981263748640E-01
(PID.TID 0000.0001) %MON ke_max                       =   1.6938682829122E-05
(PID.TID 0000.0001) %MON ke_mean                      =   4.8837103089828E-08
(PID.TID 0000.0001) %MON ke_vol                       =   4.2725088789468E+12
(PID.TID 0000.0001) // =======================================================
(PID.TID 0000.0001) // End MONITOR dynamic field statistics
(PID.TID 0000.0001) // =======================================================
(PID.TID 0000.0001) // =======================================================
(PID.TID 0000.0001) // Begin OBCS MONITOR field statistics
(PID.TID 0000.0001) // =======================================================
(PID.TID 0000.0001) %MON obc_N_vVel_max               =   1.4730733563703E-05
(PID.TID 0000.0001) %MON obc_N_vVel_min               =   1.4730733563702E-05
(PID.TID 0000.0001) %MON obc_N_vVel_mean              =   1.4730733563703E-05
(PID.TID 0000.0001) %MON obc_N_vVel_sd                =  -2.0627816525541E-23
(PID.TID 0000.0001) %MON obc_N_vVel_Int               =   9.7222841520440E+02
(PID.TID 0000.0001) // =======================================================
(PID.TID 0000.0001) // End OBCS MONITOR field statistics
(PID.TID 0000.0001) // =======================================================
 cg2d: Sum(rhs),rhsMax =   4.50790135974469E+00  2.99903251245384E+02
(PID.TID 0000.0001)      cg2d_init_res =   5.99711551290054E-06
(PID.TID 0000.0001)      cg2d_iters(min,last) =      -1      78
(PID.TID 0000.0001)      cg2d_last_res =   7.80408437506933E-12
(PID.TID 0000.0001) // =======================================================
(PID.TID 0000.0001) // Begin MONITOR dynamic field statistics
(PID.TID 0000.0001) // =======================================================
(PID.TID 0000.0001) %MON time_tsnumber                =                   642
(PID.TID 0000.0001) %MON time_secondsf                =   6.4200000000000E+04
(PID.TID 0000.0001) %MON dynstat_eta_max              =   5.7985010493338E+00
(PID.TID 0000.0001) %MON dynstat_eta_min              =  -1.4190807921417E+01
(PID.TID 0000.0001) %MON dynstat_eta_mean             =  -2.5035819890387E+00
(PID.TID 0000.0001) %MON dynstat_eta_sd               =   4.9497862903264E+00
(PID.TID 0000.0001) %MON dynstat_eta_del2             =   2.0714272965577E-01
(PID.TID 0000.0001) %MON dynstat_uvel_max             =   1.8069057825143E-03
(PID.TID 0000.0001) %MON dynstat_uvel_min             =  -7.4958107684058E-03
(PID.TID 0000.0001) %MON dynstat_uvel_mean            =  -1.1769417275455E-07
(PID.TID 0000.0001) %MON dynstat_uvel_sd              =   2.5331143146044E-04
(PID.TID 0000.0001) %MON dynstat_uvel_del2            =   4.3197070513197E-07
(PID.TID 0000.0001) %MON dynstat_vvel_max             =   6.3345484443653E-03
(PID.TID 0000.0001) %MON dynstat_vvel_min             =  -3.2102015564375E-03
(PID.TID 0000.0001) %MON dynstat_vvel_mean            =   1.4963313429191E-05
(PID.TID 0000.0001) %MON dynstat_vvel_sd              =   1.8657830837977E-04
(PID.TID 0000.0001) %MON dynstat_vvel_del2            =   4.1345101048484E-07
(PID.TID 0000.0001) %MON dynstat_wvel_max             =   2.5577568226840E-04
(PID.TID 0000.0001) %MON dynstat_wvel_min             =  -2.8016575294655E-04
(PID.TID 0000.0001) %MON dynstat_wvel_mean            =   6.6075232207742E-09
(PID.TID 0000.0001) %MON dynstat_wvel_sd              =   1.9602046648368E-05
(PID.TID 0000.0001) %MON dynstat_wvel_del2            =   8.4429324925570E-08
(PID.TID 0000.0001) %MON dynstat_theta_max            =   1.2000000000000E+00
(PID.TID 0000.0001) %MON dynstat_theta_min            =  -1.0000000000000E+00
(PID.TID 0000.0001) %MON dynstat_theta_mean           =   5.6897211926504E-01
(PID.TID 0000.0001) %MON dynstat_theta_sd             =   8.6851430057061E-01
(PID.TID 0000.0001) %MON dynstat_theta_del2           =   1.2976653116650E-06
(PID.TID 0000.0001) %MON dynstat_salt_max             =   3.4700000000000E+01
(PID.TID 0000.0001) %MON dynstat_salt_min             =   3.4000000000000E+01
(PID.TID 0000.0001) %MON dynstat_salt_mean            =   3.4499202998066E+01
(PID.TID 0000.0001) %MON dynstat_salt_sd              =   2.7634077467028E-01
(PID.TID 0000.0001) %MON dynstat_salt_del2            =   4.8968664489955E-07
(PID.TID 0000.0001) %MON advcfl_uvel_max              =   7.4958107684058E-04
(PID.TID 0000.0001) %MON advcfl_vvel_max              =   6.3345484443653E-04
(PID.TID 0000.0001) %MON advcfl_wvel_max              =   1.4008287647327E-03
(PID.TID 0000.0001) %MON advcfl_W_hf_max              =   1.4008287647327E-03
(PID.TID 0000.0001) %MON pe_b_mean                    =  -8.2981635226214E-01
(PID.TID 0000.0001) %MON ke_max                       =   1.7033910884568E-05
(PID.TID 0000.0001) %MON ke_mean                      =   4.8963030133589E-08
(PID.TID 0000.0001) %MON ke_vol                       =   4.2725088009520E+12
(PID.TID 0000.0001) // =======================================================
(PID.TID 0000.0001) // End MONITOR dynamic field statistics
(PID.TID 0000.0001) // =======================================================
(PID.TID 0000.0001) // =======================================================
(PID.TID 0000.0001) // Begin OBCS MONITOR field statistics
(PID.TID 0000.0001) // =======================================================
(PID.TID 0000.0001) %MON obc_N_vVel_max               =   1.4729938197683E-05
(PID.TID 0000.0001) %MON obc_N_vVel_min               =   1.4729938197683E-05
(PID.TID 0000.0001) %MON obc_N_vVel_mean              =   1.4729938197683E-05
(PID.TID 0000.0001) %MON obc_N_vVel_sd                =   5.7969140398118E-13
(PID.TID 0000.0001) %MON obc_N_vVel_Int               =   9.7217592104708E+02
(PID.TID 0000.0001) // =======================================================
(PID.TID 0000.0001) // End OBCS MONITOR field statistics
(PID.TID 0000.0001) // =======================================================
 cg2d: Sum(rhs),rhsMax =   4.50792384211690E+00  2.99903327310682E+02
(PID.TID 0000.0001)      cg2d_init_res =   5.97505241394640E-06
(PID.TID 0000.0001)      cg2d_iters(min,last) =      -1      78
(PID.TID 0000.0001)      cg2d_last_res =   7.79375093917448E-12
(PID.TID 0000.0001) // =======================================================
(PID.TID 0000.0001) // Begin MONITOR dynamic field statistics
(PID.TID 0000.0001) // =======================================================
(PID.TID 0000.0001) %MON time_tsnumber                =                   643
(PID.TID 0000.0001) %MON time_secondsf                =   6.4300000000000E+04
(PID.TID 0000.0001) %MON dynstat_eta_max              =   5.7984890544913E+00
(PID.TID 0000.0001) %MON dynstat_eta_min              =  -1.4190832555165E+01
(PID.TID 0000.0001) %MON dynstat_eta_mean             =  -2.5035951102111E+00
(PID.TID 0000.0001) %MON dynstat_eta_sd               =   4.9497906733320E+00
(PID.TID 0000.0001) %MON dynstat_eta_del2             =   2.0714274126886E-01
(PID.TID 0000.0001) %MON dynstat_uvel_max             =   1.8098074378150E-03
(PID.TID 0000.0001) %MON dynstat_uvel_min             =  -7.5171975097863E-03
(PID.TID 0000.0001) %MON dynstat_uvel_mean            =  -1.1762853915806E-07
(PID.TID 0000.0001) %MON dynstat_uvel_sd              =   2.5376644804056E-04
(PID.TID 0000.0001) %MON dynstat_uvel_del2            =   4.3280749581412E-07
(PID.TID 0000.0001) %MON dynstat_vvel_max             =   6.3490423356773E-03
(PID.TID 0000.0001) %MON dynstat_vvel_min             =  -3.2187485022321E-03
(PID.TID 0000.0001) %MON dynstat_vvel_mean            =   1.4962708820756E-05
(PID.TID 0000.0001) %MON dynstat_vvel_sd              =   1.8662460214592E-04
(PID.TID 0000.0001) %MON dynstat_vvel_del2            =   4.1229158564924E-07
(PID.TID 0000.0001) %MON dynstat_wvel_max             =   2.5673209739101E-04
(PID.TID 0000.0001) %MON dynstat_wvel_min             =  -2.8100447750984E-04
(PID.TID 0000.0001) %MON dynstat_wvel_mean            =   6.6082630934146E-09
(PID.TID 0000.0001) %MON dynstat_wvel_sd              =   1.9152255710110E-05
(PID.TID 0000.0001) %MON dynstat_wvel_del2            =   8.2012044771796E-08
(PID.TID 0000.0001) %MON dynstat_theta_max            =   1.2000000000000E+00
(PID.TID 0000.0001) %MON dynstat_theta_min            =  -1.0000000000000E+00
(PID.TID 0000.0001) %MON dynstat_theta_mean           =   5.6897173352580E-01
(PID.TID 0000.0001) %MON dynstat_theta_sd             =   8.6851409059430E-01
(PID.TID 0000.0001) %MON dynstat_theta_del2           =   1.2997318868434E-06
(PID.TID 0000.0001) %MON dynstat_salt_max             =   3.4700000000000E+01
(PID.TID 0000.0001) %MON dynstat_salt_min             =   3.4000000000000E+01
(PID.TID 0000.0001) %MON dynstat_salt_mean            =   3.4499202843897E+01
(PID.TID 0000.0001) %MON dynstat_salt_sd              =   2.7634069573552E-01
(PID.TID 0000.0001) %MON dynstat_salt_del2            =   4.9053025395836E-07
(PID.TID 0000.0001) %MON advcfl_uvel_max              =   7.5171975097863E-04
(PID.TID 0000.0001) %MON advcfl_vvel_max              =   6.3490423356773E-04
(PID.TID 0000.0001) %MON advcfl_wvel_max              =   1.4050223875492E-03
(PID.TID 0000.0001) %MON advcfl_W_hf_max              =   1.4050223875492E-03
(PID.TID 0000.0001) %MON pe_b_mean                    =  -8.2982006550474E-01
(PID.TID 0000.0001) %MON ke_max                       =   1.7129640357587E-05
(PID.TID 0000.0001) %MON ke_mean                      =   4.9084737753648E-08
(PID.TID 0000.0001) %MON ke_vol                       =   4.2725087229851E+12
(PID.TID 0000.0001) // =======================================================
(PID.TID 0000.0001) // End MONITOR dynamic field statistics
(PID.TID 0000.0001) // =======================================================
(PID.TID 0000.0001) // =======================================================
(PID.TID 0000.0001) // Begin OBCS MONITOR field statistics
(PID.TID 0000.0001) // =======================================================
(PID.TID 0000.0001) %MON obc_N_vVel_max               =   1.4729291701333E-05
(PID.TID 0000.0001) %MON obc_N_vVel_min               =   1.4729291701332E-05
(PID.TID 0000.0001) %MON obc_N_vVel_mean              =   1.4729291701332E-05
(PID.TID 0000.0001) %MON obc_N_vVel_sd                =   2.9645900236586E-12
(PID.TID 0000.0001) %MON obc_N_vVel_Int               =   9.7213325228793E+02
(PID.TID 0000.0001) // =======================================================
(PID.TID 0000.0001) // End OBCS MONITOR field statistics
(PID.TID 0000.0001) // =======================================================
 cg2d: Sum(rhs),rhsMax =   4.50794631678715E+00  2.99903403361106E+02
(PID.TID 0000.0001)      cg2d_init_res =   5.94923303499750E-06
(PID.TID 0000.0001)      cg2d_iters(min,last) =      -1      78
(PID.TID 0000.0001)      cg2d_last_res =   7.79085033710793E-12
(PID.TID 0000.0001) // =======================================================
(PID.TID 0000.0001) // Begin MONITOR dynamic field statistics
(PID.TID 0000.0001) // =======================================================
(PID.TID 0000.0001) %MON time_tsnumber                =                   644
(PID.TID 0000.0001) %MON time_secondsf                =   6.4400000000000E+04
(PID.TID 0000.0001) %MON dynstat_eta_max              =   5.7984770841705E+00
(PID.TID 0000.0001) %MON dynstat_eta_min              =  -1.4190857188314E+01
(PID.TID 0000.0001) %MON dynstat_eta_mean             =  -2.5036082269882E+00
(PID.TID 0000.0001) %MON dynstat_eta_sd               =   4.9497950553462E+00
(PID.TID 0000.0001) %MON dynstat_eta_del2             =   2.0714275290262E-01
(PID.TID 0000.0001) %MON dynstat_uvel_max             =   1.8127048575309E-03
(PID.TID 0000.0001) %MON dynstat_uvel_min             =  -7.5386341092498E-03
(PID.TID 0000.0001) %MON dynstat_uvel_mean            =  -1.1757880452130E-07
(PID.TID 0000.0001) %MON dynstat_uvel_sd              =   2.5422298938318E-04
(PID.TID 0000.0001) %MON dynstat_uvel_del2            =   4.3364408601151E-07
(PID.TID 0000.0001) %MON dynstat_vvel_max             =   6.3635559230883E-03
(PID.TID 0000.0001) %MON dynstat_vvel_min             =  -3.2273011642419E-03
(PID.TID 0000.0001) %MON dynstat_vvel_mean            =   1.4962305008139E-05
(PID.TID 0000.0001) %MON dynstat_vvel_sd              =   1.8665798173538E-04
(PID.TID 0000.0001) %MON dynstat_vvel_del2            =   4.1099899085492E-07
(PID.TID 0000.0001) %MON dynstat_wvel_max             =   2.5769082809733E-04
(PID.TID 0000.0001) %MON dynstat_wvel_min             =  -2.8184519385713E-04
(PID.TID 0000.0001) %MON dynstat_wvel_mean            =   6.6093690343364E-09
(PID.TID 0000.0001) %MON dynstat_wvel_sd              =   1.8656908670695E-05
(PID.TID 0000.0001) %MON dynstat_wvel_del2            =   7.9208378657963E-08
(PID.TID 0000.0001) %MON dynstat_theta_max            =   1.2000000000000E+00
(PID.TID 0000.0001) %MON dynstat_theta_min            =  -1.0000000000000E+00
(PID.TID 0000.0001) %MON dynstat_theta_mean           =   5.6897134756093E-01
(PID.TID 0000.0001) %MON dynstat_theta_sd             =   8.6851388023906E-01
(PID.TID 0000.0001) %MON dynstat_theta_del2           =   1.3020023283837E-06
(PID.TID 0000.0001) %MON dynstat_salt_max             =   3.4700000000000E+01
(PID.TID 0000.0001) %MON dynstat_salt_min             =   3.4000000000000E+01
(PID.TID 0000.0001) %MON dynstat_salt_mean            =   3.4499202689618E+01
(PID.TID 0000.0001) %MON dynstat_salt_sd              =   2.7634061665728E-01
(PID.TID 0000.0001) %MON dynstat_salt_del2            =   4.9142904763775E-07
(PID.TID 0000.0001) %MON advcfl_uvel_max              =   7.5386341092498E-04
(PID.TID 0000.0001) %MON advcfl_vvel_max              =   6.3635559230883E-04
(PID.TID 0000.0001) %MON advcfl_wvel_max              =   1.4092259692856E-03
(PID.TID 0000.0001) %MON advcfl_W_hf_max              =   1.4092259692856E-03
(PID.TID 0000.0001) %MON pe_b_mean                    =  -8.2982377726018E-01
(PID.TID 0000.0001) %MON ke_max                       =   1.7225873578959E-05
(PID.TID 0000.0001) %MON ke_mean                      =   4.9204622986011E-08
(PID.TID 0000.0001) %MON ke_vol                       =   4.2725086450453E+12
(PID.TID 0000.0001) // =======================================================
(PID.TID 0000.0001) // End MONITOR dynamic field statistics
(PID.TID 0000.0001) // =======================================================
(PID.TID 0000.0001) // =======================================================
(PID.TID 0000.0001) // Begin OBCS MONITOR field statistics
(PID.TID 0000.0001) // =======================================================
(PID.TID 0000.0001) %MON obc_N_vVel_max               =   1.4728808006855E-05
(PID.TID 0000.0001) %MON obc_N_vVel_min               =   1.4728808006854E-05
(PID.TID 0000.0001) %MON obc_N_vVel_mean              =   1.4728808006854E-05
(PID.TID 0000.0001) %MON obc_N_vVel_sd                =   2.1146974220003E-12
(PID.TID 0000.0001) %MON obc_N_vVel_Int               =   9.7210132845237E+02
(PID.TID 0000.0001) // =======================================================
(PID.TID 0000.0001) // End OBCS MONITOR field statistics
(PID.TID 0000.0001) // =======================================================
 cg2d: Sum(rhs),rhsMax =   4.50796878407775E+00  2.99903479395948E+02
(PID.TID 0000.0001)      cg2d_init_res =   5.92145462301805E-06
(PID.TID 0000.0001)      cg2d_iters(min,last) =      -1      78
(PID.TID 0000.0001)      cg2d_last_res =   7.79405594258695E-12
(PID.TID 0000.0001) // =======================================================
(PID.TID 0000.0001) // Begin MONITOR dynamic field statistics
(PID.TID 0000.0001) // =======================================================
(PID.TID 0000.0001) %MON time_tsnumber                =                   645
(PID.TID 0000.0001) %MON time_secondsf                =   6.4500000000000E+04
(PID.TID 0000.0001) %MON dynstat_eta_max              =   5.7984651376867E+00
(PID.TID 0000.0001) %MON dynstat_eta_min              =  -1.4190881821068E+01
(PID.TID 0000.0001) %MON dynstat_eta_mean             =  -2.5036213395430E+00
(PID.TID 0000.0001) %MON dynstat_eta_sd               =   4.9497994364318E+00
(PID.TID 0000.0001) %MON dynstat_eta_del2             =   2.0714276455730E-01
(PID.TID 0000.0001) %MON dynstat_uvel_max             =   1.8155980428372E-03
(PID.TID 0000.0001) %MON dynstat_uvel_min             =  -7.5601206635456E-03
(PID.TID 0000.0001) %MON dynstat_uvel_mean            =  -1.1754870564992E-07
(PID.TID 0000.0001) %MON dynstat_uvel_sd              =   2.5468102156131E-04
(PID.TID 0000.0001) %MON dynstat_uvel_del2            =   4.3448003245213E-07
(PID.TID 0000.0001) %MON dynstat_vvel_max             =   6.3780892702088E-03
(PID.TID 0000.0001) %MON dynstat_vvel_min             =  -3.2358595577247E-03
(PID.TID 0000.0001) %MON dynstat_vvel_mean            =   1.4962107702447E-05
(PID.TID 0000.0001) %MON dynstat_vvel_sd              =   1.8669220420032E-04
(PID.TID 0000.0001) %MON dynstat_vvel_del2            =   4.0970333388062E-07
(PID.TID 0000.0001) %MON dynstat_wvel_max             =   2.5865188045103E-04
(PID.TID 0000.0001) %MON dynstat_wvel_min             =  -2.8268791042557E-04
(PID.TID 0000.0001) %MON dynstat_wvel_mean            =   6.6108005874478E-09
(PID.TID 0000.0001) %MON dynstat_wvel_sd              =   1.8147384694919E-05
(PID.TID 0000.0001) %MON dynstat_wvel_del2            =   7.6179402166312E-08
(PID.TID 0000.0001) %MON dynstat_theta_max            =   1.2000000000000E+00
(PID.TID 0000.0001) %MON dynstat_theta_min            =  -1.0000000000000E+00
(PID.TID 0000.0001) %MON dynstat_theta_mean           =   5.6897096135226E-01
(PID.TID 0000.0001) %MON dynstat_theta_sd             =   8.6851366952178E-01
(PID.TID 0000.0001) %MON dynstat_theta_del2           =   1.3043423772287E-06
(PID.TID 0000.0001) %MON dynstat_salt_max             =   3.4700000000000E+01
(PID.TID 0000.0001) %MON dynstat_salt_min             =   3.4000000000000E+01
(PID.TID 0000.0001) %MON dynstat_salt_mean            =   3.4499202535223E+01
(PID.TID 0000.0001) %MON dynstat_salt_sd              =   2.7634053744080E-01
(PID.TID 0000.0001) %MON dynstat_salt_del2            =   4.9234704182104E-07
(PID.TID 0000.0001) %MON advcfl_uvel_max              =   7.5601206635456E-04
(PID.TID 0000.0001) %MON advcfl_vvel_max              =   6.3780892702088E-04
(PID.TID 0000.0001) %MON advcfl_wvel_max              =   1.4134395521278E-03
(PID.TID 0000.0001) %MON advcfl_W_hf_max              =   1.4134395521278E-03
(PID.TID 0000.0001) %MON pe_b_mean                    =  -8.2982748757503E-01
(PID.TID 0000.0001) %MON ke_max                       =   1.7322612883495E-05
(PID.TID 0000.0001) %MON ke_mean                      =   4.9325246213942E-08
(PID.TID 0000.0001) %MON ke_vol                       =   4.2725085671317E+12
(PID.TID 0000.0001) // =======================================================
(PID.TID 0000.0001) // End MONITOR dynamic field statistics
(PID.TID 0000.0001) // =======================================================
(PID.TID 0000.0001) // =======================================================
(PID.TID 0000.0001) // Begin OBCS MONITOR field statistics
(PID.TID 0000.0001) // =======================================================
(PID.TID 0000.0001) %MON obc_N_vVel_max               =   1.4728495729959E-05
(PID.TID 0000.0001) %MON obc_N_vVel_min               =   1.4728495729958E-05
(PID.TID 0000.0001) %MON obc_N_vVel_mean              =   1.4728495729958E-05
(PID.TID 0000.0001) %MON obc_N_vVel_sd                =   4.0546534592356E-12
(PID.TID 0000.0001) %MON obc_N_vVel_Int               =   9.7208071817725E+02
(PID.TID 0000.0001) // =======================================================
(PID.TID 0000.0001) // End OBCS MONITOR field statistics
(PID.TID 0000.0001) // =======================================================
 cg2d: Sum(rhs),rhsMax =   4.50799124432094E+00  2.99903555414318E+02
(PID.TID 0000.0001)      cg2d_init_res =   5.89367901183052E-06
(PID.TID 0000.0001)      cg2d_iters(min,last) =      -1      78
(PID.TID 0000.0001)      cg2d_last_res =   7.80066306167308E-12
(PID.TID 0000.0001) // =======================================================
(PID.TID 0000.0001) // Begin MONITOR dynamic field statistics
(PID.TID 0000.0001) // =======================================================
(PID.TID 0000.0001) %MON time_tsnumber                =                   646
(PID.TID 0000.0001) %MON time_secondsf                =   6.4600000000000E+04
(PID.TID 0000.0001) %MON dynstat_eta_max              =   5.7984532143464E+00
(PID.TID 0000.0001) %MON dynstat_eta_min              =  -1.4190906453610E+01
(PID.TID 0000.0001) %MON dynstat_eta_mean             =  -2.5036344480527E+00
(PID.TID 0000.0001) %MON dynstat_eta_sd               =   4.9498038166473E+00
(PID.TID 0000.0001) %MON dynstat_eta_del2             =   2.0714277623299E-01
(PID.TID 0000.0001) %MON dynstat_uvel_max             =   1.8184870070217E-03
(PID.TID 0000.0001) %MON dynstat_uvel_min             =  -7.5816572678153E-03
(PID.TID 0000.0001) %MON dynstat_uvel_mean            =  -1.1753943084476E-07
(PID.TID 0000.0001) %MON dynstat_uvel_sd              =   2.5514051561191E-04
(PID.TID 0000.0001) %MON dynstat_uvel_del2            =   4.3531493847150E-07
(PID.TID 0000.0001) %MON dynstat_vvel_max             =   6.3926424367162E-03
(PID.TID 0000.0001) %MON dynstat_vvel_min             =  -3.2444236972431E-03
(PID.TID 0000.0001) %MON dynstat_vvel_mean            =   1.4962116365642E-05
(PID.TID 0000.0001) %MON dynstat_vvel_sd              =   1.8674090717636E-04
(PID.TID 0000.0001) %MON dynstat_vvel_del2            =   4.0853579251876E-07
(PID.TID 0000.0001) %MON dynstat_wvel_max             =   2.5961526060497E-04
(PID.TID 0000.0001) %MON dynstat_wvel_min             =  -2.8353263581353E-04
(PID.TID 0000.0001) %MON dynstat_wvel_mean            =   6.6125098990257E-09
(PID.TID 0000.0001) %MON dynstat_wvel_sd              =   1.7658242507690E-05
(PID.TID 0000.0001) %MON dynstat_wvel_del2            =   7.3118496486435E-08
(PID.TID 0000.0001) %MON dynstat_theta_max            =   1.2000000000000E+00
(PID.TID 0000.0001) %MON dynstat_theta_min            =  -1.0000000000000E+00
(PID.TID 0000.0001) %MON dynstat_theta_mean           =   5.6897057487776E-01
(PID.TID 0000.0001) %MON dynstat_theta_sd             =   8.6851345845982E-01
(PID.TID 0000.0001) %MON dynstat_theta_del2           =   1.3066185231811E-06
(PID.TID 0000.0001) %MON dynstat_salt_max             =   3.4700000000000E+01
(PID.TID 0000.0001) %MON dynstat_salt_min             =   3.4000000000000E+01
(PID.TID 0000.0001) %MON dynstat_salt_mean            =   3.4499202380705E+01
(PID.TID 0000.0001) %MON dynstat_salt_sd              =   2.7634045809154E-01
(PID.TID 0000.0001) %MON dynstat_salt_del2            =   4.9324841812373E-07
(PID.TID 0000.0001) %MON advcfl_uvel_max              =   7.5816572678153E-04
(PID.TID 0000.0001) %MON advcfl_vvel_max              =   6.3926424367162E-04
(PID.TID 0000.0001) %MON advcfl_wvel_max              =   1.4176631790677E-03
(PID.TID 0000.0001) %MON advcfl_W_hf_max              =   1.4176631790677E-03
(PID.TID 0000.0001) %MON pe_b_mean                    =  -8.2983119649519E-01
(PID.TID 0000.0001) %MON ke_max                       =   1.7419860609992E-05
(PID.TID 0000.0001) %MON ke_mean                      =   4.9449148667758E-08
(PID.TID 0000.0001) %MON ke_vol                       =   4.2725084892431E+12
(PID.TID 0000.0001) // =======================================================
(PID.TID 0000.0001) // End MONITOR dynamic field statistics
(PID.TID 0000.0001) // =======================================================
(PID.TID 0000.0001) // =======================================================
(PID.TID 0000.0001) // Begin OBCS MONITOR field statistics
(PID.TID 0000.0001) // =======================================================
(PID.TID 0000.0001) %MON obc_N_vVel_max               =   1.4728358056882E-05
(PID.TID 0000.0001) %MON obc_N_vVel_min               =   1.4728358056881E-05
(PID.TID 0000.0001) %MON obc_N_vVel_mean              =   1.4728358056882E-05
(PID.TID 0000.0001) %MON obc_N_vVel_sd                =  -2.0343473189976E-23
(PID.TID 0000.0001) %MON obc_N_vVel_Int               =   9.7207163175420E+02
(PID.TID 0000.0001) // =======================================================
(PID.TID 0000.0001) // End OBCS MONITOR field statistics
(PID.TID 0000.0001) // =======================================================
 cg2d: Sum(rhs),rhsMax =   4.50801369784870E+00  2.99903631415121E+02
(PID.TID 0000.0001)      cg2d_init_res =   5.86789303973338E-06
(PID.TID 0000.0001)      cg2d_iters(min,last) =      -1      78
(PID.TID 0000.0001)      cg2d_last_res =   7.80711656512450E-12
(PID.TID 0000.0001) // =======================================================
(PID.TID 0000.0001) // Begin MONITOR dynamic field statistics
(PID.TID 0000.0001) // =======================================================
(PID.TID 0000.0001) %MON time_tsnumber                =                   647
(PID.TID 0000.0001) %MON time_secondsf                =   6.4700000000000E+04
(PID.TID 0000.0001) %MON dynstat_eta_max              =   5.7984413134784E+00
(PID.TID 0000.0001) %MON dynstat_eta_min              =  -1.4190931086108E+01
(PID.TID 0000.0001) %MON dynstat_eta_mean             =  -2.5036475526925E+00
(PID.TID 0000.0001) %MON dynstat_eta_sd               =   4.9498081960442E+00
(PID.TID 0000.0001) %MON dynstat_eta_del2             =   2.0714278792983E-01
(PID.TID 0000.0001) %MON dynstat_uvel_max             =   1.8213717753268E-03
(PID.TID 0000.0001) %MON dynstat_uvel_min             =  -7.6032440158071E-03
(PID.TID 0000.0001) %MON dynstat_uvel_mean            =  -1.1754981121693E-07
(PID.TID 0000.0001) %MON dynstat_uvel_sd              =   2.5560144982372E-04
(PID.TID 0000.0001) %MON dynstat_uvel_del2            =   4.3614847428325E-07
(PID.TID 0000.0001) %MON dynstat_vvel_max             =   6.4072154782044E-03
(PID.TID 0000.0001) %MON dynstat_vvel_min             =  -3.2529935966528E-03
(PID.TID 0000.0001) %MON dynstat_vvel_mean            =   1.4962324399108E-05
(PID.TID 0000.0001) %MON dynstat_vvel_sd              =   1.8681664086779E-04
(PID.TID 0000.0001) %MON dynstat_vvel_del2            =   4.0761904806599E-07
(PID.TID 0000.0001) %MON dynstat_wvel_max             =   2.6058097480439E-04
(PID.TID 0000.0001) %MON dynstat_wvel_min             =  -2.8437937878887E-04
(PID.TID 0000.0001) %MON dynstat_wvel_mean            =   6.6144435751284E-09
(PID.TID 0000.0001) %MON dynstat_wvel_sd              =   1.7224997966146E-05
(PID.TID 0000.0001) %MON dynstat_wvel_del2            =   7.0244778634953E-08
(PID.TID 0000.0001) %MON dynstat_theta_max            =   1.2000000000000E+00
(PID.TID 0000.0001) %MON dynstat_theta_min            =  -1.0000000000000E+00
(PID.TID 0000.0001) %MON dynstat_theta_mean           =   5.6897018811183E-01
(PID.TID 0000.0001) %MON dynstat_theta_sd             =   8.6851324707186E-01
(PID.TID 0000.0001) %MON dynstat_theta_del2           =   1.3087078487617E-06
(PID.TID 0000.0001) %MON dynstat_salt_max             =   3.4700000000000E+01
(PID.TID 0000.0001) %MON dynstat_salt_min             =   3.4000000000000E+01
(PID.TID 0000.0001) %MON dynstat_salt_mean            =   3.4499202226057E+01
(PID.TID 0000.0001) %MON dynstat_salt_sd              =   2.7634037861541E-01
(PID.TID 0000.0001) %MON dynstat_salt_del2            =   4.9410019914239E-07
(PID.TID 0000.0001) %MON advcfl_uvel_max              =   7.6032440158071E-04
(PID.TID 0000.0001) %MON advcfl_vvel_max              =   6.4072154782044E-04
(PID.TID 0000.0001) %MON advcfl_wvel_max              =   1.4218968939443E-03
(PID.TID 0000.0001) %MON advcfl_W_hf_max              =   1.4218968939443E-03
(PID.TID 0000.0001) %MON pe_b_mean                    =  -8.2983490406464E-01
(PID.TID 0000.0001) %MON ke_max                       =   1.7517619102136E-05
(PID.TID 0000.0001) %MON ke_mean                      =   4.9578673202224E-08
(PID.TID 0000.0001) %MON ke_vol                       =   4.2725084113786E+12
(PID.TID 0000.0001) // =======================================================
(PID.TID 0000.0001) // End MONITOR dynamic field statistics
(PID.TID 0000.0001) // =======================================================
(PID.TID 0000.0001) // =======================================================
(PID.TID 0000.0001) // Begin OBCS MONITOR field statistics
(PID.TID 0000.0001) // =======================================================
(PID.TID 0000.0001) %MON obc_N_vVel_max               =   1.4728392812760E-05
(PID.TID 0000.0001) %MON obc_N_vVel_min               =   1.4728392812759E-05
(PID.TID 0000.0001) %MON obc_N_vVel_mean              =   1.4728392812759E-05
(PID.TID 0000.0001) %MON obc_N_vVel_sd                =   1.0542883609896E-12
(PID.TID 0000.0001) %MON obc_N_vVel_Int               =   9.7207392564212E+02
(PID.TID 0000.0001) // =======================================================
(PID.TID 0000.0001) // End OBCS MONITOR field statistics
(PID.TID 0000.0001) // =======================================================
 cg2d: Sum(rhs),rhsMax =   4.50803614497757E+00  2.99903707397106E+02
(PID.TID 0000.0001)      cg2d_init_res =   5.84595884922474E-06
(PID.TID 0000.0001)      cg2d_iters(min,last) =      -1      78
(PID.TID 0000.0001)      cg2d_last_res =   7.81010999701918E-12
(PID.TID 0000.0001) // =======================================================
(PID.TID 0000.0001) // Begin MONITOR dynamic field statistics
(PID.TID 0000.0001) // =======================================================
(PID.TID 0000.0001) %MON time_tsnumber                =                   648
(PID.TID 0000.0001) %MON time_secondsf                =   6.4800000000000E+04
(PID.TID 0000.0001) %MON dynstat_eta_max              =   5.7984294344661E+00
(PID.TID 0000.0001) %MON dynstat_eta_min              =  -1.4190955718735E+01
(PID.TID 0000.0001) %MON dynstat_eta_mean             =  -2.5036606536277E+00
(PID.TID 0000.0001) %MON dynstat_eta_sd               =   4.9498125746655E+00
(PID.TID 0000.0001) %MON dynstat_eta_del2             =   2.0714279964785E-01
(PID.TID 0000.0001) %MON dynstat_uvel_max             =   1.8242523837102E-03
(PID.TID 0000.0001) %MON dynstat_uvel_min             =  -7.6248809996935E-03
(PID.TID 0000.0001) %MON dynstat_uvel_mean            =  -1.1757670348522E-07
(PID.TID 0000.0001) %MON dynstat_uvel_sd              =   2.5606381170761E-04
(PID.TID 0000.0001) %MON dynstat_uvel_del2            =   4.3698039419294E-07
(PID.TID 0000.0001) %MON dynstat_vvel_max             =   6.4218084465555E-03
(PID.TID 0000.0001) %MON dynstat_vvel_min             =  -3.2615692693199E-03
(PID.TID 0000.0001) %MON dynstat_vvel_mean            =   1.4962719512745E-05
(PID.TID 0000.0001) %MON dynstat_vvel_sd              =   1.8692997984035E-04
(PID.TID 0000.0001) %MON dynstat_vvel_del2            =   4.0705792357573E-07
(PID.TID 0000.0001) %MON dynstat_wvel_max             =   2.6154902936879E-04
(PID.TID 0000.0001) %MON dynstat_wvel_min             =  -2.8522814827273E-04
(PID.TID 0000.0001) %MON dynstat_wvel_mean            =   6.6165439438681E-09
(PID.TID 0000.0001) %MON dynstat_wvel_sd              =   1.6881024644822E-05
(PID.TID 0000.0001) %MON dynstat_wvel_del2            =   6.7789243483139E-08
(PID.TID 0000.0001) %MON dynstat_theta_max            =   1.2000000000000E+00
(PID.TID 0000.0001) %MON dynstat_theta_min            =  -1.0000000000000E+00
(PID.TID 0000.0001) %MON dynstat_theta_mean           =   5.6896980102550E-01
(PID.TID 0000.0001) %MON dynstat_theta_sd             =   8.6851303536425E-01
(PID.TID 0000.0001) %MON dynstat_theta_del2           =   1.3105070765859E-06
(PID.TID 0000.0001) %MON dynstat_salt_max             =   3.4700000000000E+01
(PID.TID 0000.0001) %MON dynstat_salt_min             =   3.4000000000000E+01
(PID.TID 0000.0001) %MON dynstat_salt_mean            =   3.4499202071267E+01
(PID.TID 0000.0001) %MON dynstat_salt_sd              =   2.7634029901436E-01
(PID.TID 0000.0001) %MON dynstat_salt_del2            =   4.9487472196794E-07
(PID.TID 0000.0001) %MON advcfl_uvel_max              =   7.6248809996935E-04
(PID.TID 0000.0001) %MON advcfl_vvel_max              =   6.4218084465555E-04
(PID.TID 0000.0001) %MON advcfl_wvel_max              =   1.4261407413636E-03
(PID.TID 0000.0001) %MON advcfl_W_hf_max              =   1.4261407413636E-03
(PID.TID 0000.0001) %MON pe_b_mean                    =  -8.2983861032341E-01
(PID.TID 0000.0001) %MON ke_max                       =   1.7615890707451E-05
(PID.TID 0000.0001) %MON ke_mean                      =   4.9715801065812E-08
(PID.TID 0000.0001) %MON ke_vol                       =   4.2725083335370E+12
(PID.TID 0000.0001) // =======================================================
(PID.TID 0000.0001) // End MONITOR dynamic field statistics
(PID.TID 0000.0001) // =======================================================
(PID.TID 0000.0001) // =======================================================
(PID.TID 0000.0001) // Begin OBCS MONITOR field statistics
(PID.TID 0000.0001) // =======================================================
(PID.TID 0000.0001) %MON obc_N_vVel_max               =   1.4728592742328E-05
(PID.TID 0000.0001) %MON obc_N_vVel_min               =   1.4728592742327E-05
(PID.TID 0000.0001) %MON obc_N_vVel_mean              =   1.4728592742327E-05
(PID.TID 0000.0001) %MON obc_N_vVel_sd                =   3.9382275817135E-13
(PID.TID 0000.0001) %MON obc_N_vVel_Int               =   9.7208712099361E+02
(PID.TID 0000.0001) // =======================================================
(PID.TID 0000.0001) // End OBCS MONITOR field statistics
(PID.TID 0000.0001) // =======================================================
 cg2d: Sum(rhs),rhsMax =   4.50805858600210E+00  2.99903783358893E+02
(PID.TID 0000.0001)      cg2d_init_res =   5.82948069375653E-06
(PID.TID 0000.0001)      cg2d_iters(min,last) =      -1      78
(PID.TID 0000.0001)      cg2d_last_res =   7.80783812042006E-12
(PID.TID 0000.0001) // =======================================================
(PID.TID 0000.0001) // Begin MONITOR dynamic field statistics
(PID.TID 0000.0001) // =======================================================
(PID.TID 0000.0001) %MON time_tsnumber                =                   649
(PID.TID 0000.0001) %MON time_secondsf                =   6.4900000000000E+04
(PID.TID 0000.0001) %MON dynstat_eta_max              =   5.7984175767735E+00
(PID.TID 0000.0001) %MON dynstat_eta_min              =  -1.4190980351676E+01
(PID.TID 0000.0001) %MON dynstat_eta_mean             =  -2.5036737510103E+00
(PID.TID 0000.0001) %MON dynstat_eta_sd               =   4.9498169525491E+00
(PID.TID 0000.0001) %MON dynstat_eta_del2             =   2.0714281138729E-01
(PID.TID 0000.0001) %MON dynstat_uvel_max             =   1.8271288767366E-03
(PID.TID 0000.0001) %MON dynstat_uvel_min             =  -7.6465683103786E-03
(PID.TID 0000.0001) %MON dynstat_uvel_mean            =  -1.1761551738709E-07
(PID.TID 0000.0001) %MON dynstat_uvel_sd              =   2.5652759951148E-04
(PID.TID 0000.0001) %MON dynstat_uvel_del2            =   4.3781054819478E-07
(PID.TID 0000.0001) %MON dynstat_vvel_max             =   6.4364213901005E-03
(PID.TID 0000.0001) %MON dynstat_vvel_min             =  -3.2701507283210E-03
(PID.TID 0000.0001) %MON dynstat_vvel_mean            =   1.4963284228807E-05
(PID.TID 0000.0001) %MON dynstat_vvel_sd              =   1.8708878136971E-04
(PID.TID 0000.0001) %MON dynstat_vvel_del2            =   4.0693107579735E-07
(PID.TID 0000.0001) %MON dynstat_wvel_max             =   2.6251943406452E-04
(PID.TID 0000.0001) %MON dynstat_wvel_min             =  -2.8607895324977E-04
(PID.TID 0000.0001) %MON dynstat_wvel_mean            =   6.6187505684663E-09
(PID.TID 0000.0001) %MON dynstat_wvel_sd              =   1.6653787416982E-05
(PID.TID 0000.0001) %MON dynstat_wvel_del2            =   6.5971101998248E-08
(PID.TID 0000.0001) %MON dynstat_theta_max            =   1.2000000000000E+00
(PID.TID 0000.0001) %MON dynstat_theta_min            =  -1.0000000000000E+00
(PID.TID 0000.0001) %MON dynstat_theta_mean           =   5.6896941358705E-01
(PID.TID 0000.0001) %MON dynstat_theta_sd             =   8.6851282335012E-01
(PID.TID 0000.0001) %MON dynstat_theta_del2           =   1.3119404405453E-06
(PID.TID 0000.0001) %MON dynstat_salt_max             =   3.4700000000000E+01
(PID.TID 0000.0001) %MON dynstat_salt_min             =   3.4000000000000E+01
(PID.TID 0000.0001) %MON dynstat_salt_mean            =   3.4499201916327E+01
(PID.TID 0000.0001) %MON dynstat_salt_sd              =   2.7634021929241E-01
(PID.TID 0000.0001) %MON dynstat_salt_del2            =   4.9555172993975E-07
(PID.TID 0000.0001) %MON advcfl_uvel_max              =   7.6465683103786E-04
(PID.TID 0000.0001) %MON advcfl_vvel_max              =   6.4364213901005E-04
(PID.TID 0000.0001) %MON advcfl_wvel_max              =   1.4303947662488E-03
(PID.TID 0000.0001) %MON advcfl_W_hf_max              =   1.4303947662488E-03
(PID.TID 0000.0001) %MON pe_b_mean                    =  -8.2984231530689E-01
(PID.TID 0000.0001) %MON ke_max                       =   1.7714677777726E-05
(PID.TID 0000.0001) %MON ke_mean                      =   4.9862016131645E-08
(PID.TID 0000.0001) %MON ke_vol                       =   4.2725082557175E+12
(PID.TID 0000.0001) // =======================================================
(PID.TID 0000.0001) // End MONITOR dynamic field statistics
(PID.TID 0000.0001) // =======================================================
(PID.TID 0000.0001) // =======================================================
(PID.TID 0000.0001) // Begin OBCS MONITOR field statistics
(PID.TID 0000.0001) // =======================================================
(PID.TID 0000.0001) %MON obc_N_vVel_max               =   1.4728945876237E-05
(PID.TID 0000.0001) %MON obc_N_vVel_min               =   1.4728945876237E-05
(PID.TID 0000.0001) %MON obc_N_vVel_mean              =   1.4728945876237E-05
(PID.TID 0000.0001) %MON obc_N_vVel_sd                =  -1.2692052523861E-23
(PID.TID 0000.0001) %MON obc_N_vVel_Int               =   9.7211042783166E+02
(PID.TID 0000.0001) // =======================================================
(PID.TID 0000.0001) // End OBCS MONITOR field statistics
(PID.TID 0000.0001) // =======================================================
 cg2d: Sum(rhs),rhsMax =   4.50808102118773E+00  2.99903859299017E+02
(PID.TID 0000.0001)      cg2d_init_res =   5.81965975483725E-06
(PID.TID 0000.0001)      cg2d_iters(min,last) =      -1      78
(PID.TID 0000.0001)      cg2d_last_res =   7.80101112205742E-12
(PID.TID 0000.0001) // =======================================================
(PID.TID 0000.0001) // Begin MONITOR dynamic field statistics
(PID.TID 0000.0001) // =======================================================
(PID.TID 0000.0001) %MON time_tsnumber                =                   650
(PID.TID 0000.0001) %MON time_secondsf                =   6.5000000000000E+04
(PID.TID 0000.0001) %MON dynstat_eta_max              =   5.7984057399695E+00
(PID.TID 0000.0001) %MON dynstat_eta_min              =  -1.4191004985125E+01
(PID.TID 0000.0001) %MON dynstat_eta_mean             =  -2.5036868449757E+00
(PID.TID 0000.0001) %MON dynstat_eta_sd               =   4.9498213297215E+00
(PID.TID 0000.0001) %MON dynstat_eta_del2             =   2.0714282314819E-01
(PID.TID 0000.0001) %MON dynstat_uvel_max             =   1.8300013048338E-03
(PID.TID 0000.0001) %MON dynstat_uvel_min             =  -7.6683060376590E-03
(PID.TID 0000.0001) %MON dynstat_uvel_mean            =  -1.1766084364368E-07
(PID.TID 0000.0001) %MON dynstat_uvel_sd              =   2.5699282321997E-04
(PID.TID 0000.0001) %MON dynstat_uvel_del2            =   4.3863888817892E-07
(PID.TID 0000.0001) %MON dynstat_vvel_max             =   6.4510543548506E-03
(PID.TID 0000.0001) %MON dynstat_vvel_min             =  -3.2787379868013E-03
(PID.TID 0000.0001) %MON dynstat_vvel_mean            =   1.4963996581183E-05
(PID.TID 0000.0001) %MON dynstat_vvel_sd              =   1.8729764772054E-04
(PID.TID 0000.0001) %MON dynstat_vvel_del2            =   4.0728460829797E-07
(PID.TID 0000.0001) %MON dynstat_wvel_max             =   2.6349219517909E-04
(PID.TID 0000.0001) %MON dynstat_wvel_min             =  -2.8693180281496E-04
(PID.TID 0000.0001) %MON dynstat_wvel_mean            =   6.6210017612201E-09
(PID.TID 0000.0001) %MON dynstat_wvel_sd              =   1.6561056872669E-05
(PID.TID 0000.0001) %MON dynstat_wvel_del2            =   6.4965214068555E-08
(PID.TID 0000.0001) %MON dynstat_theta_max            =   1.2000000000000E+00
(PID.TID 0000.0001) %MON dynstat_theta_min            =  -1.0000000000000E+00
(PID.TID 0000.0001) %MON dynstat_theta_mean           =   5.6896902576274E-01
(PID.TID 0000.0001) %MON dynstat_theta_sd             =   8.6851261104803E-01
(PID.TID 0000.0001) %MON dynstat_theta_del2           =   1.3129650515208E-06
(PID.TID 0000.0001) %MON dynstat_salt_max             =   3.4700000000000E+01
(PID.TID 0000.0001) %MON dynstat_salt_min             =   3.4000000000000E+01
(PID.TID 0000.0001) %MON dynstat_salt_mean            =   3.4499201761225E+01
(PID.TID 0000.0001) %MON dynstat_salt_sd              =   2.7634013945536E-01
(PID.TID 0000.0001) %MON dynstat_salt_del2            =   4.9611982014012E-07
(PID.TID 0000.0001) %MON advcfl_uvel_max              =   7.6683060376590E-04
(PID.TID 0000.0001) %MON advcfl_vvel_max              =   6.4510543548506E-04
(PID.TID 0000.0001) %MON advcfl_wvel_max              =   1.4346590140748E-03
(PID.TID 0000.0001) %MON advcfl_W_hf_max              =   1.4346590140748E-03
(PID.TID 0000.0001) %MON pe_b_mean                    =  -8.2984601904475E-01
(PID.TID 0000.0001) %MON ke_max                       =   1.7813982668581E-05
(PID.TID 0000.0001) %MON ke_mean                      =   5.0018206096101E-08
(PID.TID 0000.0001) %MON ke_vol                       =   4.2725081779190E+12
(PID.TID 0000.0001) // =======================================================
(PID.TID 0000.0001) // End MONITOR dynamic field statistics
(PID.TID 0000.0001) // =======================================================
(PID.TID 0000.0001) // =======================================================
(PID.TID 0000.0001) // Begin OBCS MONITOR field statistics
(PID.TID 0000.0001) // =======================================================
(PID.TID 0000.0001) %MON obc_N_vVel_max               =   1.4729436068593E-05
(PID.TID 0000.0001) %MON obc_N_vVel_min               =   1.4729436068592E-05
(PID.TID 0000.0001) %MON obc_N_vVel_mean              =   1.4729436068592E-05
(PID.TID 0000.0001) %MON obc_N_vVel_sd                =   3.5444048235422E-12
(PID.TID 0000.0001) %MON obc_N_vVel_Int               =   9.7214278052710E+02
(PID.TID 0000.0001) // =======================================================
(PID.TID 0000.0001) // End OBCS MONITOR field statistics
(PID.TID 0000.0001) // =======================================================
 cg2d: Sum(rhs),rhsMax =   4.50810345076028E+00  2.99903935215986E+02
(PID.TID 0000.0001)      cg2d_init_res =   5.81719719661647E-06
(PID.TID 0000.0001)      cg2d_iters(min,last) =      -1      78
(PID.TID 0000.0001)      cg2d_last_res =   7.79220512203984E-12
(PID.TID 0000.0001) // =======================================================
(PID.TID 0000.0001) // Begin MONITOR dynamic field statistics
(PID.TID 0000.0001) // =======================================================
(PID.TID 0000.0001) %MON time_tsnumber                =                   651
(PID.TID 0000.0001) %MON time_secondsf                =   6.5100000000000E+04
(PID.TID 0000.0001) %MON dynstat_eta_max              =   5.7983939237370E+00
(PID.TID 0000.0001) %MON dynstat_eta_min              =  -1.4191029619291E+01
(PID.TID 0000.0001) %MON dynstat_eta_mean             =  -2.5036999356366E+00
(PID.TID 0000.0001) %MON dynstat_eta_sd               =   4.9498257062004E+00
(PID.TID 0000.0001) %MON dynstat_eta_del2             =   2.0714283493064E-01
(PID.TID 0000.0001) %MON dynstat_uvel_max             =   1.8328697211636E-03
(PID.TID 0000.0001) %MON dynstat_uvel_min             =  -7.6900942704281E-03
(PID.TID 0000.0001) %MON dynstat_uvel_mean            =  -1.1770707775706E-07
(PID.TID 0000.0001) %MON dynstat_uvel_sd              =   2.5745950499576E-04
(PID.TID 0000.0001) %MON dynstat_uvel_del2            =   4.3946546821536E-07
(PID.TID 0000.0001) %MON dynstat_vvel_max             =   6.4657073851606E-03
(PID.TID 0000.0001) %MON dynstat_vvel_min             =  -3.2873310584129E-03
(PID.TID 0000.0001) %MON dynstat_vvel_mean            =   1.4964830911243E-05
(PID.TID 0000.0001) %MON dynstat_vvel_sd              =   1.8755763388539E-04
(PID.TID 0000.0001) %MON dynstat_vvel_del2            =   4.0812832995182E-07
(PID.TID 0000.0001) %MON dynstat_wvel_max             =   2.6446731922903E-04
(PID.TID 0000.0001) %MON dynstat_wvel_min             =  -2.8778670597432E-04
(PID.TID 0000.0001) %MON dynstat_wvel_mean            =   6.6232362403762E-09
(PID.TID 0000.0001) %MON dynstat_wvel_sd              =   1.6608103157854E-05
(PID.TID 0000.0001) %MON dynstat_wvel_del2            =   6.4868083059382E-08
(PID.TID 0000.0001) %MON dynstat_theta_max            =   1.2000000000000E+00
(PID.TID 0000.0001) %MON dynstat_theta_min            =  -1.0000000000000E+00
(PID.TID 0000.0001) %MON dynstat_theta_mean           =   5.6896863751721E-01
(PID.TID 0000.0001) %MON dynstat_theta_sd             =   8.6851239846116E-01
(PID.TID 0000.0001) %MON dynstat_theta_del2           =   1.3135735953568E-06
(PID.TID 0000.0001) %MON dynstat_salt_max             =   3.4700000000000E+01
(PID.TID 0000.0001) %MON dynstat_salt_min             =   3.4000000000000E+01
(PID.TID 0000.0001) %MON dynstat_salt_mean            =   3.4499201605950E+01
(PID.TID 0000.0001) %MON dynstat_salt_sd              =   2.7634005950425E-01
(PID.TID 0000.0001) %MON dynstat_salt_del2            =   4.9657716225068E-07
(PID.TID 0000.0001) %MON advcfl_uvel_max              =   7.6900942704281E-04
(PID.TID 0000.0001) %MON advcfl_vvel_max              =   6.4657073851606E-04
(PID.TID 0000.0001) %MON advcfl_wvel_max              =   1.4389335298716E-03
(PID.TID 0000.0001) %MON advcfl_W_hf_max              =   1.4389335298716E-03
(PID.TID 0000.0001) %MON pe_b_mean                    =  -8.2984972155988E-01
(PID.TID 0000.0001) %MON ke_max                       =   1.7913807739400E-05
(PID.TID 0000.0001) %MON ke_mean                      =   5.0184607356249E-08
(PID.TID 0000.0001) %MON ke_vol                       =   4.2725081001408E+12
(PID.TID 0000.0001) // =======================================================
(PID.TID 0000.0001) // End MONITOR dynamic field statistics
(PID.TID 0000.0001) // =======================================================
(PID.TID 0000.0001) // =======================================================
(PID.TID 0000.0001) // Begin OBCS MONITOR field statistics
(PID.TID 0000.0001) // =======================================================
(PID.TID 0000.0001) %MON obc_N_vVel_max               =   1.4730043608359E-05
(PID.TID 0000.0001) %MON obc_N_vVel_min               =   1.4730043608359E-05
(PID.TID 0000.0001) %MON obc_N_vVel_mean              =   1.4730043608359E-05
(PID.TID 0000.0001) %MON obc_N_vVel_sd                =   2.0209414327191E-12
(PID.TID 0000.0001) %MON obc_N_vVel_Int               =   9.7218287815169E+02
(PID.TID 0000.0001) // =======================================================
(PID.TID 0000.0001) // End OBCS MONITOR field statistics
(PID.TID 0000.0001) // =======================================================
 cg2d: Sum(rhs),rhsMax =   4.50812587490065E+00  2.99904011108335E+02
(PID.TID 0000.0001)      cg2d_init_res =   5.82223203558768E-06
(PID.TID 0000.0001)      cg2d_iters(min,last) =      -1      78
(PID.TID 0000.0001)      cg2d_last_res =   7.78432358152328E-12
(PID.TID 0000.0001) // =======================================================
(PID.TID 0000.0001) // Begin MONITOR dynamic field statistics
(PID.TID 0000.0001) // =======================================================
(PID.TID 0000.0001) %MON time_tsnumber                =                   652
(PID.TID 0000.0001) %MON time_secondsf                =   6.5200000000000E+04
(PID.TID 0000.0001) %MON dynstat_eta_max              =   5.7983821278734E+00
(PID.TID 0000.0001) %MON dynstat_eta_min              =  -1.4191054254382E+01
(PID.TID 0000.0001) %MON dynstat_eta_mean             =  -2.5037130230814E+00
(PID.TID 0000.0001) %MON dynstat_eta_sd               =   4.9498300819950E+00
(PID.TID 0000.0001) %MON dynstat_eta_del2             =   2.0714284673476E-01
(PID.TID 0000.0001) %MON dynstat_uvel_max             =   1.8357341788020E-03
(PID.TID 0000.0001) %MON dynstat_uvel_min             =  -7.7119330969850E-03
(PID.TID 0000.0001) %MON dynstat_uvel_mean            =  -1.1774901400669E-07
(PID.TID 0000.0001) %MON dynstat_uvel_sd              =   2.5792767904100E-04
(PID.TID 0000.0001) %MON dynstat_uvel_del2            =   4.4029043906394E-07
(PID.TID 0000.0001) %MON dynstat_vvel_max             =   6.4803805245086E-03
(PID.TID 0000.0001) %MON dynstat_vvel_min             =  -3.2959299575301E-03
(PID.TID 0000.0001) %MON dynstat_vvel_mean            =   1.4965758677453E-05
(PID.TID 0000.0001) %MON dynstat_vvel_sd              =   1.8786622274092E-04
(PID.TID 0000.0001) %MON dynstat_vvel_del2            =   4.0943510967168E-07
(PID.TID 0000.0001) %MON dynstat_wvel_max             =   2.6544481266773E-04
(PID.TID 0000.0001) %MON dynstat_wvel_min             =  -2.8864367175148E-04
(PID.TID 0000.0001) %MON dynstat_wvel_mean            =   6.6253946922351E-09
(PID.TID 0000.0001) %MON dynstat_wvel_sd              =   1.6786807477940E-05
(PID.TID 0000.0001) %MON dynstat_wvel_del2            =   6.5675554766423E-08
(PID.TID 0000.0001) %MON dynstat_theta_max            =   1.2000000000000E+00
(PID.TID 0000.0001) %MON dynstat_theta_min            =  -1.0000000000000E+00
(PID.TID 0000.0001) %MON dynstat_theta_mean           =   5.6896824881416E-01
(PID.TID 0000.0001) %MON dynstat_theta_sd             =   8.6851218557174E-01
(PID.TID 0000.0001) %MON dynstat_theta_del2           =   1.3137946894992E-06
(PID.TID 0000.0001) %MON dynstat_salt_max             =   3.4700000000000E+01
(PID.TID 0000.0001) %MON dynstat_salt_min             =   3.4000000000000E+01
(PID.TID 0000.0001) %MON dynstat_salt_mean            =   3.4499201450489E+01
(PID.TID 0000.0001) %MON dynstat_salt_sd              =   2.7633997943333E-01
(PID.TID 0000.0001) %MON dynstat_salt_del2            =   4.9693157435308E-07
(PID.TID 0000.0001) %MON advcfl_uvel_max              =   7.7119330969850E-04
(PID.TID 0000.0001) %MON advcfl_vvel_max              =   6.4803805245086E-04
(PID.TID 0000.0001) %MON advcfl_wvel_max              =   1.4432183587574E-03
(PID.TID 0000.0001) %MON advcfl_W_hf_max              =   1.4432183587574E-03
(PID.TID 0000.0001) %MON pe_b_mean                    =  -8.2985342286803E-01
(PID.TID 0000.0001) %MON ke_max                       =   1.8014155353566E-05
(PID.TID 0000.0001) %MON ke_mean                      =   5.0360797158803E-08
(PID.TID 0000.0001) %MON ke_vol                       =   4.2725080223823E+12
(PID.TID 0000.0001) // =======================================================
(PID.TID 0000.0001) // End MONITOR dynamic field statistics
(PID.TID 0000.0001) // =======================================================
(PID.TID 0000.0001) // =======================================================
(PID.TID 0000.0001) // Begin OBCS MONITOR field statistics
(PID.TID 0000.0001) // =======================================================
(PID.TID 0000.0001) %MON obc_N_vVel_max               =   1.4730745935281E-05
(PID.TID 0000.0001) %MON obc_N_vVel_min               =   1.4730745935280E-05
(PID.TID 0000.0001) %MON obc_N_vVel_mean              =   1.4730745935281E-05
(PID.TID 0000.0001) %MON obc_N_vVel_sd                =  -8.6078482493799E-24
(PID.TID 0000.0001) %MON obc_N_vVel_Int               =   9.7222923172854E+02
(PID.TID 0000.0001) // =======================================================
(PID.TID 0000.0001) // End OBCS MONITOR field statistics
(PID.TID 0000.0001) // =======================================================
 cg2d: Sum(rhs),rhsMax =   4.50814829373351E+00  2.99904086974698E+02
(PID.TID 0000.0001)      cg2d_init_res =   5.83432769020306E-06
(PID.TID 0000.0001)      cg2d_iters(min,last) =      -1      78
(PID.TID 0000.0001)      cg2d_last_res =   7.77968324618925E-12
(PID.TID 0000.0001) // =======================================================
(PID.TID 0000.0001) // Begin MONITOR dynamic field statistics
(PID.TID 0000.0001) // =======================================================
(PID.TID 0000.0001) %MON time_tsnumber                =                   653
(PID.TID 0000.0001) %MON time_secondsf                =   6.5300000000000E+04
(PID.TID 0000.0001) %MON dynstat_eta_max              =   5.7983703522934E+00
(PID.TID 0000.0001) %MON dynstat_eta_min              =  -1.4191078890592E+01
(PID.TID 0000.0001) %MON dynstat_eta_mean             =  -2.5037261073680E+00
(PID.TID 0000.0001) %MON dynstat_eta_sd               =   4.9498344571088E+00
(PID.TID 0000.0001) %MON dynstat_eta_del2             =   2.0714285856087E-01
(PID.TID 0000.0001) %MON dynstat_uvel_max             =   1.8385947279900E-03
(PID.TID 0000.0001) %MON dynstat_uvel_min             =  -7.7338226052648E-03
(PID.TID 0000.0001) %MON dynstat_uvel_mean            =  -1.1778233098023E-07
(PID.TID 0000.0001) %MON dynstat_uvel_sd              =   2.5839739090022E-04
(PID.TID 0000.0001) %MON dynstat_uvel_del2            =   4.4111403735454E-07
(PID.TID 0000.0001) %MON dynstat_vvel_max             =   6.4950738162919E-03
(PID.TID 0000.0001) %MON dynstat_vvel_min             =  -3.3045346996730E-03
(PID.TID 0000.0001) %MON dynstat_vvel_mean            =   1.4966749354350E-05
(PID.TID 0000.0001) %MON dynstat_vvel_sd              =   1.8821756729609E-04
(PID.TID 0000.0001) %MON dynstat_vvel_del2            =   4.1114341066652E-07
(PID.TID 0000.0001) %MON dynstat_wvel_max             =   2.6642468195475E-04
(PID.TID 0000.0001) %MON dynstat_wvel_min             =  -2.8950270902773E-04
(PID.TID 0000.0001) %MON dynstat_wvel_mean            =   6.6274209080542E-09
(PID.TID 0000.0001) %MON dynstat_wvel_sd              =   1.7077034546357E-05
(PID.TID 0000.0001) %MON dynstat_wvel_del2            =   6.7283218848359E-08
(PID.TID 0000.0001) %MON dynstat_theta_max            =   1.2000000000000E+00
(PID.TID 0000.0001) %MON dynstat_theta_min            =  -1.0000000000000E+00
(PID.TID 0000.0001) %MON dynstat_theta_mean           =   5.6896785961658E-01
(PID.TID 0000.0001) %MON dynstat_theta_sd             =   8.6851197236115E-01
(PID.TID 0000.0001) %MON dynstat_theta_del2           =   1.3136922690668E-06
(PID.TID 0000.0001) %MON dynstat_salt_max             =   3.4700000000000E+01
(PID.TID 0000.0001) %MON dynstat_salt_min             =   3.4000000000000E+01
(PID.TID 0000.0001) %MON dynstat_salt_mean            =   3.4499201294832E+01
(PID.TID 0000.0001) %MON dynstat_salt_sd              =   2.7633989923642E-01
(PID.TID 0000.0001) %MON dynstat_salt_del2            =   4.9720033598200E-07
(PID.TID 0000.0001) %MON advcfl_uvel_max              =   7.7338226052648E-04
(PID.TID 0000.0001) %MON advcfl_vvel_max              =   6.4950738162919E-04
(PID.TID 0000.0001) %MON advcfl_wvel_max              =   1.4475135451386E-03
(PID.TID 0000.0001) %MON advcfl_W_hf_max              =   1.4475135451386E-03
(PID.TID 0000.0001) %MON pe_b_mean                    =  -8.2985712297663E-01
(PID.TID 0000.0001) %MON ke_max                       =   1.8115027878418E-05
(PID.TID 0000.0001) %MON ke_mean                      =   5.0545733203383E-08
(PID.TID 0000.0001) %MON ke_vol                       =   4.2725079446429E+12
(PID.TID 0000.0001) // =======================================================
(PID.TID 0000.0001) // End MONITOR dynamic field statistics
(PID.TID 0000.0001) // =======================================================
(PID.TID 0000.0001) // =======================================================
(PID.TID 0000.0001) // Begin OBCS MONITOR field statistics
(PID.TID 0000.0001) // =======================================================
(PID.TID 0000.0001) %MON obc_N_vVel_max               =   1.4731518418538E-05
(PID.TID 0000.0001) %MON obc_N_vVel_min               =   1.4731518418538E-05
(PID.TID 0000.0001) %MON obc_N_vVel_mean              =   1.4731518418538E-05
(PID.TID 0000.0001) %MON obc_N_vVel_sd                =  -2.5849394142282E-26
(PID.TID 0000.0001) %MON obc_N_vVel_Int               =   9.7228021562350E+02
(PID.TID 0000.0001) // =======================================================
(PID.TID 0000.0001) // End OBCS MONITOR field statistics
(PID.TID 0000.0001) // =======================================================
 cg2d: Sum(rhs),rhsMax =   4.50817070732848E+00  2.99904162813845E+02
(PID.TID 0000.0001)      cg2d_init_res =   5.85250178130355E-06
(PID.TID 0000.0001)      cg2d_iters(min,last) =      -1      78
(PID.TID 0000.0001)      cg2d_last_res =   7.77918830657696E-12
(PID.TID 0000.0001) // =======================================================
(PID.TID 0000.0001) // Begin MONITOR dynamic field statistics
(PID.TID 0000.0001) // =======================================================
(PID.TID 0000.0001) %MON time_tsnumber                =                   654
(PID.TID 0000.0001) %MON time_secondsf                =   6.5400000000000E+04
(PID.TID 0000.0001) %MON dynstat_eta_max              =   5.7983585970140E+00
(PID.TID 0000.0001) %MON dynstat_eta_min              =  -1.4191103528092E+01
(PID.TID 0000.0001) %MON dynstat_eta_mean             =  -2.5037391885245E+00
(PID.TID 0000.0001) %MON dynstat_eta_sd               =   4.9498388315310E+00
(PID.TID 0000.0001) %MON dynstat_eta_del2             =   2.0714287040906E-01
(PID.TID 0000.0001) %MON dynstat_uvel_max             =   1.8414784458156E-03
(PID.TID 0000.0001) %MON dynstat_uvel_min             =  -7.7557628830691E-03
(PID.TID 0000.0001) %MON dynstat_uvel_mean            =  -1.1780391227677E-07
(PID.TID 0000.0001) %MON dynstat_uvel_sd              =   2.5886869626650E-04
(PID.TID 0000.0001) %MON dynstat_uvel_del2            =   4.4193657019358E-07
(PID.TID 0000.0001) %MON dynstat_vvel_max             =   6.5097873044504E-03
(PID.TID 0000.0001) %MON dynstat_vvel_min             =  -3.3131453014983E-03
(PID.TID 0000.0001) %MON dynstat_vvel_mean            =   1.4967771418115E-05
(PID.TID 0000.0001) %MON dynstat_vvel_sd              =   1.8860297727695E-04
(PID.TID 0000.0001) %MON dynstat_vvel_del2            =   4.1316269437270E-07
(PID.TID 0000.0001) %MON dynstat_wvel_max             =   2.6740693351364E-04
(PID.TID 0000.0001) %MON dynstat_wvel_min             =  -2.9036382658693E-04
(PID.TID 0000.0001) %MON dynstat_wvel_mean            =   6.6292633347722E-09
(PID.TID 0000.0001) %MON dynstat_wvel_sd              =   1.7449790027243E-05
(PID.TID 0000.0001) %MON dynstat_wvel_del2            =   6.9509420869809E-08
(PID.TID 0000.0001) %MON dynstat_theta_max            =   1.2000000000000E+00
(PID.TID 0000.0001) %MON dynstat_theta_min            =  -1.0000000000000E+00
(PID.TID 0000.0001) %MON dynstat_theta_mean           =   5.6896746988770E-01
(PID.TID 0000.0001) %MON dynstat_theta_sd             =   8.6851175880754E-01
(PID.TID 0000.0001) %MON dynstat_theta_del2           =   1.3133606874668E-06
(PID.TID 0000.0001) %MON dynstat_salt_max             =   3.4700000000000E+01
(PID.TID 0000.0001) %MON dynstat_salt_min             =   3.4000000000000E+01
(PID.TID 0000.0001) %MON dynstat_salt_mean            =   3.4499201138966E+01
(PID.TID 0000.0001) %MON dynstat_salt_sd              =   2.7633981890664E-01
(PID.TID 0000.0001) %MON dynstat_salt_del2            =   4.9740883685149E-07
(PID.TID 0000.0001) %MON advcfl_uvel_max              =   7.7557628830691E-04
(PID.TID 0000.0001) %MON advcfl_vvel_max              =   6.5097873044504E-04
(PID.TID 0000.0001) %MON advcfl_wvel_max              =   1.4518191329347E-03
(PID.TID 0000.0001) %MON advcfl_W_hf_max              =   1.4518191329347E-03
(PID.TID 0000.0001) %MON pe_b_mean                    =  -8.2986082188468E-01
(PID.TID 0000.0001) %MON ke_max                       =   1.8216427686173E-05
(PID.TID 0000.0001) %MON ke_mean                      =   5.0737837433459E-08
(PID.TID 0000.0001) %MON ke_vol                       =   4.2725078669222E+12
(PID.TID 0000.0001) // =======================================================
(PID.TID 0000.0001) // End MONITOR dynamic field statistics
(PID.TID 0000.0001) // =======================================================
(PID.TID 0000.0001) // =======================================================
(PID.TID 0000.0001) // Begin OBCS MONITOR field statistics
(PID.TID 0000.0001) // =======================================================
(PID.TID 0000.0001) %MON obc_N_vVel_max               =   1.4732335116932E-05
(PID.TID 0000.0001) %MON obc_N_vVel_min               =   1.4732335116932E-05
(PID.TID 0000.0001) %MON obc_N_vVel_mean              =   1.4732335116932E-05
(PID.TID 0000.0001) %MON obc_N_vVel_sd                =  -1.6802106192483E-24
(PID.TID 0000.0001) %MON obc_N_vVel_Int               =   9.7233411771751E+02
(PID.TID 0000.0001) // =======================================================
(PID.TID 0000.0001) // End OBCS MONITOR field statistics
(PID.TID 0000.0001) // =======================================================
 cg2d: Sum(rhs),rhsMax =   4.50819311570544E+00  2.99904238624756E+02
(PID.TID 0000.0001)      cg2d_init_res =   5.87532189503887E-06
(PID.TID 0000.0001)      cg2d_iters(min,last) =      -1      78
(PID.TID 0000.0001)      cg2d_last_res =   7.78272283092885E-12
(PID.TID 0000.0001) // =======================================================
(PID.TID 0000.0001) // Begin MONITOR dynamic field statistics
(PID.TID 0000.0001) // =======================================================
(PID.TID 0000.0001) %MON time_tsnumber                =                   655
(PID.TID 0000.0001) %MON time_secondsf                =   6.5500000000000E+04
(PID.TID 0000.0001) %MON dynstat_eta_max              =   5.7983468621317E+00
(PID.TID 0000.0001) %MON dynstat_eta_min              =  -1.4191128167006E+01
(PID.TID 0000.0001) %MON dynstat_eta_mean             =  -2.5037522665537E+00
(PID.TID 0000.0001) %MON dynstat_eta_sd               =   4.9498432052415E+00
(PID.TID 0000.0001) %MON dynstat_eta_del2             =   2.0714288227941E-01
(PID.TID 0000.0001) %MON dynstat_uvel_max             =   1.8445763930255E-03
(PID.TID 0000.0001) %MON dynstat_uvel_min             =  -7.7777540182042E-03
(PID.TID 0000.0001) %MON dynstat_uvel_mean            =  -1.1781206377163E-07
(PID.TID 0000.0001) %MON dynstat_uvel_sd              =   2.5934165937631E-04
(PID.TID 0000.0001) %MON dynstat_uvel_del2            =   4.4275839652484E-07
(PID.TID 0000.0001) %MON dynstat_vvel_max             =   6.5245210340255E-03
(PID.TID 0000.0001) %MON dynstat_vvel_min             =  -3.3217617809136E-03
(PID.TID 0000.0001) %MON dynstat_vvel_mean            =   1.4968793323079E-05
(PID.TID 0000.0001) %MON dynstat_vvel_sd              =   1.8901160776400E-04
(PID.TID 0000.0001) %MON dynstat_vvel_del2            =   4.1538105986155E-07
(PID.TID 0000.0001) %MON dynstat_wvel_max             =   2.6839157375767E-04
(PID.TID 0000.0001) %MON dynstat_wvel_min             =  -2.9122703306586E-04
(PID.TID 0000.0001) %MON dynstat_wvel_mean            =   6.6308766957004E-09
(PID.TID 0000.0001) %MON dynstat_wvel_sd              =   1.7871165651790E-05
(PID.TID 0000.0001) %MON dynstat_wvel_del2            =   7.2129765761759E-08
(PID.TID 0000.0001) %MON dynstat_theta_max            =   1.2000000000000E+00
(PID.TID 0000.0001) %MON dynstat_theta_min            =  -1.0000000000000E+00
(PID.TID 0000.0001) %MON dynstat_theta_mean           =   5.6896707959210E-01
(PID.TID 0000.0001) %MON dynstat_theta_sd             =   8.6851154491612E-01
(PID.TID 0000.0001) %MON dynstat_theta_del2           =   1.3129163363006E-06
(PID.TID 0000.0001) %MON dynstat_salt_max             =   3.4700000000000E+01
(PID.TID 0000.0001) %MON dynstat_salt_min             =   3.4000000000000E+01
(PID.TID 0000.0001) %MON dynstat_salt_mean            =   3.4499200982880E+01
(PID.TID 0000.0001) %MON dynstat_salt_sd              =   2.7633973844539E-01
(PID.TID 0000.0001) %MON dynstat_salt_del2            =   4.9758834256946E-07
(PID.TID 0000.0001) %MON advcfl_uvel_max              =   7.7777540182042E-04
(PID.TID 0000.0001) %MON advcfl_vvel_max              =   6.5245210340255E-04
(PID.TID 0000.0001) %MON advcfl_wvel_max              =   1.4561351653293E-03
(PID.TID 0000.0001) %MON advcfl_W_hf_max              =   1.4561351653293E-03
(PID.TID 0000.0001) %MON pe_b_mean                    =  -8.2986451958415E-01
(PID.TID 0000.0001) %MON ke_max                       =   1.8318357154177E-05
(PID.TID 0000.0001) %MON ke_mean                      =   5.0935117607321E-08
(PID.TID 0000.0001) %MON ke_vol                       =   4.2725077892202E+12
(PID.TID 0000.0001) // =======================================================
(PID.TID 0000.0001) // End MONITOR dynamic field statistics
(PID.TID 0000.0001) // =======================================================
(PID.TID 0000.0001) // =======================================================
(PID.TID 0000.0001) // Begin OBCS MONITOR field statistics
(PID.TID 0000.0001) // =======================================================
(PID.TID 0000.0001) %MON obc_N_vVel_max               =   1.4733169556905E-05
(PID.TID 0000.0001) %MON obc_N_vVel_min               =   1.4733169556905E-05
(PID.TID 0000.0001) %MON obc_N_vVel_mean              =   1.4733169556905E-05
(PID.TID 0000.0001) %MON obc_N_vVel_sd                =  -9.5642758326444E-24
(PID.TID 0000.0001) %MON obc_N_vVel_Int               =   9.7238919075573E+02
(PID.TID 0000.0001) // =======================================================
(PID.TID 0000.0001) // End OBCS MONITOR field statistics
(PID.TID 0000.0001) // =======================================================
 cg2d: Sum(rhs),rhsMax =   4.50821551882727E+00  2.99904314406661E+02
(PID.TID 0000.0001)      cg2d_init_res =   5.90101869316622E-06
(PID.TID 0000.0001)      cg2d_iters(min,last) =      -1      78
(PID.TID 0000.0001)      cg2d_last_res =   7.78968138819273E-12
(PID.TID 0000.0001) // =======================================================
(PID.TID 0000.0001) // Begin MONITOR dynamic field statistics
(PID.TID 0000.0001) // =======================================================
(PID.TID 0000.0001) %MON time_tsnumber                =                   656
(PID.TID 0000.0001) %MON time_secondsf                =   6.5600000000000E+04
(PID.TID 0000.0001) %MON dynstat_eta_max              =   5.7983351478139E+00
(PID.TID 0000.0001) %MON dynstat_eta_min              =  -1.4191152807410E+01
(PID.TID 0000.0001) %MON dynstat_eta_mean             =  -2.5037653414284E+00
(PID.TID 0000.0001) %MON dynstat_eta_sd               =   4.9498475782134E+00
(PID.TID 0000.0001) %MON dynstat_eta_del2             =   2.0714289417211E-01
(PID.TID 0000.0001) %MON dynstat_uvel_max             =   1.8476716893412E-03
(PID.TID 0000.0001) %MON dynstat_uvel_min             =  -7.7997960986691E-03
(PID.TID 0000.0001) %MON dynstat_uvel_mean            =  -1.1780652243540E-07
(PID.TID 0000.0001) %MON dynstat_uvel_sd              =   2.5981635109651E-04
(PID.TID 0000.0001) %MON dynstat_uvel_del2            =   4.4357990642870E-07
(PID.TID 0000.0001) %MON dynstat_vvel_max             =   6.5392750514164E-03
(PID.TID 0000.0001) %MON dynstat_vvel_min             =  -3.3303841569134E-03
(PID.TID 0000.0001) %MON dynstat_vvel_mean            =   1.4969784505589E-05
(PID.TID 0000.0001) %MON dynstat_vvel_sd              =   1.8943129203295E-04
(PID.TID 0000.0001) %MON dynstat_vvel_del2            =   4.1767428511035E-07
(PID.TID 0000.0001) %MON dynstat_wvel_max             =   2.6937860906225E-04
(PID.TID 0000.0001) %MON dynstat_wvel_min             =  -2.9209233701746E-04
(PID.TID 0000.0001) %MON dynstat_wvel_mean            =   6.6322233775136E-09
(PID.TID 0000.0001) %MON dynstat_wvel_sd              =   1.8306096334593E-05
(PID.TID 0000.0001) %MON dynstat_wvel_del2            =   7.4909926394976E-08
(PID.TID 0000.0001) %MON dynstat_theta_max            =   1.2000000000000E+00
(PID.TID 0000.0001) %MON dynstat_theta_min            =  -1.0000000000000E+00
(PID.TID 0000.0001) %MON dynstat_theta_mean           =   5.6896668869584E-01
(PID.TID 0000.0001) %MON dynstat_theta_sd             =   8.6851133068836E-01
(PID.TID 0000.0001) %MON dynstat_theta_del2           =   1.3124896348018E-06
(PID.TID 0000.0001) %MON dynstat_salt_max             =   3.4700000000000E+01
(PID.TID 0000.0001) %MON dynstat_salt_min             =   3.4000000000000E+01
(PID.TID 0000.0001) %MON dynstat_salt_mean            =   3.4499200826563E+01
(PID.TID 0000.0001) %MON dynstat_salt_sd              =   2.7633965785329E-01
(PID.TID 0000.0001) %MON dynstat_salt_del2            =   4.9777369227256E-07
(PID.TID 0000.0001) %MON advcfl_uvel_max              =   7.7997960986691E-04
(PID.TID 0000.0001) %MON advcfl_vvel_max              =   6.5392750514164E-04
(PID.TID 0000.0001) %MON advcfl_wvel_max              =   1.4604616850873E-03
(PID.TID 0000.0001) %MON advcfl_W_hf_max              =   1.4604616850873E-03
(PID.TID 0000.0001) %MON pe_b_mean                    =  -8.2986821605939E-01
(PID.TID 0000.0001) %MON ke_max                       =   1.8420818665823E-05
(PID.TID 0000.0001) %MON ke_mean                      =   5.1135317457347E-08
(PID.TID 0000.0001) %MON ke_vol                       =   4.2725077115367E+12
(PID.TID 0000.0001) // =======================================================
(PID.TID 0000.0001) // End MONITOR dynamic field statistics
(PID.TID 0000.0001) // =======================================================
(PID.TID 0000.0001) // =======================================================
(PID.TID 0000.0001) // Begin OBCS MONITOR field statistics
(PID.TID 0000.0001) // =======================================================
(PID.TID 0000.0001) %MON obc_N_vVel_max               =   1.4733995530865E-05
(PID.TID 0000.0001) %MON obc_N_vVel_min               =   1.4733995530865E-05
(PID.TID 0000.0001) %MON obc_N_vVel_mean              =   1.4733995530865E-05
(PID.TID 0000.0001) %MON obc_N_vVel_sd                =   4.6291627476199E-12
(PID.TID 0000.0001) %MON obc_N_vVel_Int               =   9.7244370503706E+02
(PID.TID 0000.0001) // =======================================================
(PID.TID 0000.0001) // End OBCS MONITOR field statistics
(PID.TID 0000.0001) // =======================================================
 cg2d: Sum(rhs),rhsMax =   4.50823791660178E+00  2.99904390159092E+02
(PID.TID 0000.0001)      cg2d_init_res =   5.92762273324656E-06
(PID.TID 0000.0001)      cg2d_iters(min,last) =      -1      78
(PID.TID 0000.0001)      cg2d_last_res =   7.79925676917896E-12
(PID.TID 0000.0001) // =======================================================
(PID.TID 0000.0001) // Begin MONITOR dynamic field statistics
(PID.TID 0000.0001) // =======================================================
(PID.TID 0000.0001) %MON time_tsnumber                =                   657
(PID.TID 0000.0001) %MON time_secondsf                =   6.5700000000000E+04
(PID.TID 0000.0001) %MON dynstat_eta_max              =   5.7983234542781E+00
(PID.TID 0000.0001) %MON dynstat_eta_min              =  -1.4191177449298E+01
(PID.TID 0000.0001) %MON dynstat_eta_mean             =  -2.5037784130936E+00
(PID.TID 0000.0001) %MON dynstat_eta_sd               =   4.9498519504109E+00
(PID.TID 0000.0001) %MON dynstat_eta_del2             =   2.0714290608730E-01
(PID.TID 0000.0001) %MON dynstat_uvel_max             =   1.8507643606358E-03
(PID.TID 0000.0001) %MON dynstat_uvel_min             =  -7.8218892126891E-03
(PID.TID 0000.0001) %MON dynstat_uvel_mean            =  -1.1778834146182E-07
(PID.TID 0000.0001) %MON dynstat_uvel_sd              =   2.6029284685348E-04
(PID.TID 0000.0001) %MON dynstat_uvel_del2            =   4.4440149978043E-07
(PID.TID 0000.0001) %MON dynstat_vvel_max             =   6.5540494044809E-03
(PID.TID 0000.0001) %MON dynstat_vvel_min             =  -3.3390124494366E-03
(PID.TID 0000.0001) %MON dynstat_vvel_mean            =   1.4970716218625E-05
(PID.TID 0000.0001) %MON dynstat_vvel_sd              =   1.8984945202002E-04
(PID.TID 0000.0001) %MON dynstat_vvel_del2            =   4.1991539508398E-07
(PID.TID 0000.0001) %MON dynstat_wvel_max             =   2.7036804578013E-04
(PID.TID 0000.0001) %MON dynstat_wvel_min             =  -2.9295974683149E-04
(PID.TID 0000.0001) %MON dynstat_wvel_mean            =   6.6332742328146E-09
(PID.TID 0000.0001) %MON dynstat_wvel_sd              =   1.8721348896585E-05
(PID.TID 0000.0001) %MON dynstat_wvel_del2            =   7.7629343685063E-08
(PID.TID 0000.0001) %MON dynstat_theta_max            =   1.2000000000000E+00
(PID.TID 0000.0001) %MON dynstat_theta_min            =  -1.0000000000000E+00
(PID.TID 0000.0001) %MON dynstat_theta_mean           =   5.6896629716712E-01
(PID.TID 0000.0001) %MON dynstat_theta_sd             =   8.6851111614319E-01
(PID.TID 0000.0001) %MON dynstat_theta_del2           =   1.3122147614293E-06
(PID.TID 0000.0001) %MON dynstat_salt_max             =   3.4700000000000E+01
(PID.TID 0000.0001) %MON dynstat_salt_min             =   3.4000000000000E+01
(PID.TID 0000.0001) %MON dynstat_salt_mean            =   3.4499200670004E+01
(PID.TID 0000.0001) %MON dynstat_salt_sd              =   2.7633957713610E-01
(PID.TID 0000.0001) %MON dynstat_salt_del2            =   4.9800062100201E-07
(PID.TID 0000.0001) %MON advcfl_uvel_max              =   7.8218892126891E-04
(PID.TID 0000.0001) %MON advcfl_vvel_max              =   6.5540494044809E-04
(PID.TID 0000.0001) %MON advcfl_wvel_max              =   1.4647987341575E-03
(PID.TID 0000.0001) %MON advcfl_W_hf_max              =   1.4647987341575E-03
(PID.TID 0000.0001) %MON pe_b_mean                    =  -8.2987191128757E-01
(PID.TID 0000.0001) %MON ke_max                       =   1.8523814611679E-05
(PID.TID 0000.0001) %MON ke_mean                      =   5.1336084321604E-08
(PID.TID 0000.0001) %MON ke_vol                       =   4.2725076338719E+12
(PID.TID 0000.0001) // =======================================================
(PID.TID 0000.0001) // End MONITOR dynamic field statistics
(PID.TID 0000.0001) // =======================================================
(PID.TID 0000.0001) // =======================================================
(PID.TID 0000.0001) // Begin OBCS MONITOR field statistics
(PID.TID 0000.0001) // =======================================================
(PID.TID 0000.0001) %MON obc_N_vVel_max               =   1.4734787885448E-05
(PID.TID 0000.0001) %MON obc_N_vVel_min               =   1.4734787885448E-05
(PID.TID 0000.0001) %MON obc_N_vVel_mean              =   1.4734787885448E-05
(PID.TID 0000.0001) %MON obc_N_vVel_sd                =   1.7685521454614E-12
(PID.TID 0000.0001) %MON obc_N_vVel_Int               =   9.7249600043957E+02
(PID.TID 0000.0001) // =======================================================
(PID.TID 0000.0001) // End OBCS MONITOR field statistics
(PID.TID 0000.0001) // =======================================================
 cg2d: Sum(rhs),rhsMax =   4.50826030888385E+00  2.99904465881910E+02
(PID.TID 0000.0001)      cg2d_init_res =   5.95312781711772E-06
(PID.TID 0000.0001)      cg2d_iters(min,last) =      -1      78
(PID.TID 0000.0001)      cg2d_last_res =   7.81070378727153E-12
(PID.TID 0000.0001) // =======================================================
(PID.TID 0000.0001) // Begin MONITOR dynamic field statistics
(PID.TID 0000.0001) // =======================================================
(PID.TID 0000.0001) %MON time_tsnumber                =                   658
(PID.TID 0000.0001) %MON time_secondsf                =   6.5800000000000E+04
(PID.TID 0000.0001) %MON dynstat_eta_max              =   5.7983117817682E+00
(PID.TID 0000.0001) %MON dynstat_eta_min              =  -1.4191202092597E+01
(PID.TID 0000.0001) %MON dynstat_eta_mean             =  -2.5037914814675E+00
(PID.TID 0000.0001) %MON dynstat_eta_sd               =   4.9498563217921E+00
(PID.TID 0000.0001) %MON dynstat_eta_del2             =   2.0714291802513E-01
(PID.TID 0000.0001) %MON dynstat_uvel_max             =   1.8538544275466E-03
(PID.TID 0000.0001) %MON dynstat_uvel_min             =  -7.8440334485625E-03
(PID.TID 0000.0001) %MON dynstat_uvel_mean            =  -1.1775969182089E-07
(PID.TID 0000.0001) %MON dynstat_uvel_sd              =   2.6077122450223E-04
(PID.TID 0000.0001) %MON dynstat_uvel_del2            =   4.4522356572607E-07
(PID.TID 0000.0001) %MON dynstat_vvel_max             =   6.5688441426364E-03
(PID.TID 0000.0001) %MON dynstat_vvel_min             =  -3.3476466789564E-03
(PID.TID 0000.0001) %MON dynstat_vvel_mean            =   1.4971562344983E-05
(PID.TID 0000.0001) %MON dynstat_vvel_sd              =   1.9025401679112E-04
(PID.TID 0000.0001) %MON dynstat_vvel_del2            =   4.2198395412978E-07
(PID.TID 0000.0001) %MON dynstat_wvel_max             =   2.7135989024302E-04
(PID.TID 0000.0001) %MON dynstat_wvel_min             =  -2.9382927089093E-04
(PID.TID 0000.0001) %MON dynstat_wvel_mean            =   6.6340101712374E-09
(PID.TID 0000.0001) %MON dynstat_wvel_sd              =   1.9087595500703E-05
(PID.TID 0000.0001) %MON dynstat_wvel_del2            =   8.0095020866976E-08
(PID.TID 0000.0001) %MON dynstat_theta_max            =   1.2000000000000E+00
(PID.TID 0000.0001) %MON dynstat_theta_min            =  -1.0000000000000E+00
(PID.TID 0000.0001) %MON dynstat_theta_mean           =   5.6896590497674E-01
(PID.TID 0000.0001) %MON dynstat_theta_sd             =   8.6851090130836E-01
(PID.TID 0000.0001) %MON dynstat_theta_del2           =   1.3122195421601E-06
(PID.TID 0000.0001) %MON dynstat_salt_max             =   3.4700000000000E+01
(PID.TID 0000.0001) %MON dynstat_salt_min             =   3.4000000000000E+01
(PID.TID 0000.0001) %MON dynstat_salt_mean            =   3.4499200513194E+01
(PID.TID 0000.0001) %MON dynstat_salt_sd              =   2.7633949630251E-01
(PID.TID 0000.0001) %MON dynstat_salt_del2            =   4.9830319054414E-07
(PID.TID 0000.0001) %MON advcfl_uvel_max              =   7.8440334485625E-04
(PID.TID 0000.0001) %MON advcfl_vvel_max              =   6.5688441426364E-04
(PID.TID 0000.0001) %MON advcfl_wvel_max              =   1.4691463544546E-03
(PID.TID 0000.0001) %MON advcfl_W_hf_max              =   1.4691463544546E-03
(PID.TID 0000.0001) %MON pe_b_mean                    =  -8.2987560523930E-01
(PID.TID 0000.0001) %MON ke_max                       =   1.8627347389067E-05
(PID.TID 0000.0001) %MON ke_mean                      =   5.1535141913214E-08
(PID.TID 0000.0001) %MON ke_vol                       =   4.2725075562262E+12
(PID.TID 0000.0001) // =======================================================
(PID.TID 0000.0001) // End MONITOR dynamic field statistics
(PID.TID 0000.0001) // =======================================================
(PID.TID 0000.0001) // =======================================================
(PID.TID 0000.0001) // Begin OBCS MONITOR field statistics
(PID.TID 0000.0001) // =======================================================
(PID.TID 0000.0001) %MON obc_N_vVel_max               =   1.4735523202491E-05
(PID.TID 0000.0001) %MON obc_N_vVel_min               =   1.4735523202491E-05
(PID.TID 0000.0001) %MON obc_N_vVel_mean              =   1.4735523202491E-05
(PID.TID 0000.0001) %MON obc_N_vVel_sd                =  -5.4542221640215E-24
(PID.TID 0000.0001) %MON obc_N_vVel_Int               =   9.7254453136443E+02
(PID.TID 0000.0001) // =======================================================
(PID.TID 0000.0001) // End OBCS MONITOR field statistics
(PID.TID 0000.0001) // =======================================================
 cg2d: Sum(rhs),rhsMax =   4.50828269548023E+00  2.99904541575322E+02
(PID.TID 0000.0001)      cg2d_init_res =   5.97564422219837E-06
(PID.TID 0000.0001)      cg2d_iters(min,last) =      -1      78
(PID.TID 0000.0001)      cg2d_last_res =   7.82374315961471E-12
(PID.TID 0000.0001) // =======================================================
(PID.TID 0000.0001) // Begin MONITOR dynamic field statistics
(PID.TID 0000.0001) // =======================================================
(PID.TID 0000.0001) %MON time_tsnumber                =                   659
(PID.TID 0000.0001) %MON time_secondsf                =   6.5900000000000E+04
(PID.TID 0000.0001) %MON dynstat_eta_max              =   5.7983001305478E+00
(PID.TID 0000.0001) %MON dynstat_eta_min              =  -1.4191226737140E+01
(PID.TID 0000.0001) %MON dynstat_eta_mean             =  -2.5038045464444E+00
(PID.TID 0000.0001) %MON dynstat_eta_sd               =   4.9498606923099E+00
(PID.TID 0000.0001) %MON dynstat_eta_del2             =   2.0714292998584E-01
(PID.TID 0000.0001) %MON dynstat_uvel_max             =   1.8569419065981E-03
(PID.TID 0000.0001) %MON dynstat_uvel_min             =  -7.8662288949083E-03
(PID.TID 0000.0001) %MON dynstat_uvel_mean            =  -1.1772354581030E-07
(PID.TID 0000.0001) %MON dynstat_uvel_sd              =   2.6125156222113E-04
(PID.TID 0000.0001) %MON dynstat_uvel_del2            =   4.4604646463294E-07
(PID.TID 0000.0001) %MON dynstat_vvel_max             =   6.5836593163517E-03
(PID.TID 0000.0001) %MON dynstat_vvel_min             =  -3.3562868662509E-03
(PID.TID 0000.0001) %MON dynstat_vvel_mean            =   1.4972300116547E-05
(PID.TID 0000.0001) %MON dynstat_vvel_sd              =   1.9063428177531E-04
(PID.TID 0000.0001) %MON dynstat_vvel_del2            =   4.2377442454946E-07
(PID.TID 0000.0001) %MON dynstat_wvel_max             =   2.7235414870584E-04
(PID.TID 0000.0001) %MON dynstat_wvel_min             =  -2.9470091752956E-04
(PID.TID 0000.0001) %MON dynstat_wvel_mean            =   6.6344218281980E-09
(PID.TID 0000.0001) %MON dynstat_wvel_sd              =   1.9380696468515E-05
(PID.TID 0000.0001) %MON dynstat_wvel_del2            =   8.2148001045904E-08
(PID.TID 0000.0001) %MON dynstat_theta_max            =   1.2000000000000E+00
(PID.TID 0000.0001) %MON dynstat_theta_min            =  -1.0000000000000E+00
(PID.TID 0000.0001) %MON dynstat_theta_mean           =   5.6896551209861E-01
(PID.TID 0000.0001) %MON dynstat_theta_sd             =   8.6851068620685E-01
(PID.TID 0000.0001) %MON dynstat_theta_del2           =   1.3126155273726E-06
(PID.TID 0000.0001) %MON dynstat_salt_max             =   3.4700000000000E+01
(PID.TID 0000.0001) %MON dynstat_salt_min             =   3.4000000000000E+01
(PID.TID 0000.0001) %MON dynstat_salt_mean            =   3.4499200356124E+01
(PID.TID 0000.0001) %MON dynstat_salt_sd              =   2.7633941536007E-01
(PID.TID 0000.0001) %MON dynstat_salt_del2            =   4.9871100410555E-07
(PID.TID 0000.0001) %MON advcfl_uvel_max              =   7.8662288949083E-04
(PID.TID 0000.0001) %MON advcfl_vvel_max              =   6.5836593163517E-04
(PID.TID 0000.0001) %MON advcfl_wvel_max              =   1.4735045876478E-03
(PID.TID 0000.0001) %MON advcfl_W_hf_max              =   1.4735045876478E-03
(PID.TID 0000.0001) %MON pe_b_mean                    =  -8.2987929787951E-01
(PID.TID 0000.0001) %MON ke_max                       =   1.8731419404464E-05
(PID.TID 0000.0001) %MON ke_mean                      =   5.1730455525650E-08
(PID.TID 0000.0001) %MON ke_vol                       =   4.2725074786001E+12
(PID.TID 0000.0001) // =======================================================
(PID.TID 0000.0001) // End MONITOR dynamic field statistics
(PID.TID 0000.0001) // =======================================================
(PID.TID 0000.0001) // =======================================================
(PID.TID 0000.0001) // Begin OBCS MONITOR field statistics
(PID.TID 0000.0001) // =======================================================
(PID.TID 0000.0001) %MON obc_N_vVel_max               =   1.4736180537512E-05
(PID.TID 0000.0001) %MON obc_N_vVel_min               =   1.4736180537512E-05
(PID.TID 0000.0001) %MON obc_N_vVel_mean              =   1.4736180537512E-05
(PID.TID 0000.0001) %MON obc_N_vVel_sd                =   2.5370256485555E-12
(PID.TID 0000.0001) %MON obc_N_vVel_Int               =   9.7258791547578E+02
(PID.TID 0000.0001) // =======================================================
(PID.TID 0000.0001) // End OBCS MONITOR field statistics
(PID.TID 0000.0001) // =======================================================
 cg2d: Sum(rhs),rhsMax =   4.50830507615549E+00  2.99904617239944E+02
(PID.TID 0000.0001)      cg2d_init_res =   5.99350986314206E-06
(PID.TID 0000.0001)      cg2d_iters(min,last) =      -1      78
(PID.TID 0000.0001)      cg2d_last_res =   7.83801739920922E-12
(PID.TID 0000.0001) // =======================================================
(PID.TID 0000.0001) // Begin MONITOR dynamic field statistics
(PID.TID 0000.0001) // =======================================================
(PID.TID 0000.0001) %MON time_tsnumber                =                   660
(PID.TID 0000.0001) %MON time_secondsf                =   6.6000000000000E+04
(PID.TID 0000.0001) %MON dynstat_eta_max              =   5.7982885008807E+00
(PID.TID 0000.0001) %MON dynstat_eta_min              =  -1.4191251382708E+01
(PID.TID 0000.0001) %MON dynstat_eta_mean             =  -2.5038176078987E+00
(PID.TID 0000.0001) %MON dynstat_eta_sd               =   4.9498650619134E+00
(PID.TID 0000.0001) %MON dynstat_eta_del2             =   2.0714294196962E-01
(PID.TID 0000.0001) %MON dynstat_uvel_max             =   1.8600268116842E-03
(PID.TID 0000.0001) %MON dynstat_uvel_min             =  -7.8884756403683E-03
(PID.TID 0000.0001) %MON dynstat_uvel_mean            =  -1.1768330312028E-07
(PID.TID 0000.0001) %MON dynstat_uvel_sd              =   2.6173393668073E-04
(PID.TID 0000.0001) %MON dynstat_uvel_del2            =   4.4687051358369E-07
(PID.TID 0000.0001) %MON dynstat_vvel_max             =   6.5984949771734E-03
(PID.TID 0000.0001) %MON dynstat_vvel_min             =  -3.3649330319276E-03
(PID.TID 0000.0001) %MON dynstat_vvel_mean            =   1.4972910723780E-05
(PID.TID 0000.0001) %MON dynstat_vvel_sd              =   1.9098164953480E-04
(PID.TID 0000.0001) %MON dynstat_vvel_del2            =   4.2520312353766E-07
(PID.TID 0000.0001) %MON dynstat_wvel_max             =   2.7335082752598E-04
(PID.TID 0000.0001) %MON dynstat_wvel_min             =  -2.9557469514845E-04
(PID.TID 0000.0001) %MON dynstat_wvel_mean            =   6.6345099504506E-09
(PID.TID 0000.0001) %MON dynstat_wvel_sd              =   1.9582412331328E-05
(PID.TID 0000.0001) %MON dynstat_wvel_del2            =   8.3665580644903E-08
(PID.TID 0000.0001) %MON dynstat_theta_max            =   1.2000000000000E+00
(PID.TID 0000.0001) %MON dynstat_theta_min            =  -1.0000000000000E+00
(PID.TID 0000.0001) %MON dynstat_theta_mean           =   5.6896511851027E-01
(PID.TID 0000.0001) %MON dynstat_theta_sd             =   8.6851047085965E-01
(PID.TID 0000.0001) %MON dynstat_theta_del2           =   1.3134889949701E-06
(PID.TID 0000.0001) %MON dynstat_salt_max             =   3.4700000000000E+01
(PID.TID 0000.0001) %MON dynstat_salt_min             =   3.4000000000000E+01
(PID.TID 0000.0001) %MON dynstat_salt_mean            =   3.4499200198788E+01
(PID.TID 0000.0001) %MON dynstat_salt_sd              =   2.7633933431502E-01
(PID.TID 0000.0001) %MON dynstat_salt_del2            =   4.9924687476838E-07
(PID.TID 0000.0001) %MON advcfl_uvel_max              =   7.8884756403683E-04
(PID.TID 0000.0001) %MON advcfl_vvel_max              =   6.5984949771734E-04
(PID.TID 0000.0001) %MON advcfl_wvel_max              =   1.4778734757422E-03
(PID.TID 0000.0001) %MON advcfl_W_hf_max              =   1.4778734757422E-03
(PID.TID 0000.0001) %MON pe_b_mean                    =  -8.2988298916863E-01
(PID.TID 0000.0001) %MON ke_max                       =   1.8836033073054E-05
(PID.TID 0000.0001) %MON ke_mean                      =   5.1920377753644E-08
(PID.TID 0000.0001) %MON ke_vol                       =   4.2725074009941E+12
(PID.TID 0000.0001) // =======================================================
(PID.TID 0000.0001) // End MONITOR dynamic field statistics
(PID.TID 0000.0001) // =======================================================
(PID.TID 0000.0001) // =======================================================
(PID.TID 0000.0001) // Begin OBCS MONITOR field statistics
(PID.TID 0000.0001) // =======================================================
(PID.TID 0000.0001) %MON obc_N_vVel_max               =   1.4736741966078E-05
(PID.TID 0000.0001) %MON obc_N_vVel_min               =   1.4736741966078E-05
(PID.TID 0000.0001) %MON obc_N_vVel_mean              =   1.4736741966078E-05
(PID.TID 0000.0001) %MON obc_N_vVel_sd                =   2.6418433750728E-12
(PID.TID 0000.0001) %MON obc_N_vVel_Int               =   9.7262496976116E+02
(PID.TID 0000.0001) // =======================================================
(PID.TID 0000.0001) // End OBCS MONITOR field statistics
(PID.TID 0000.0001) // =======================================================
 cg2d: Sum(rhs),rhsMax =   4.50832745064092E+00  2.99904692876745E+02
(PID.TID 0000.0001)      cg2d_init_res =   6.00542535574809E-06
(PID.TID 0000.0001)      cg2d_iters(min,last) =      -1      78
(PID.TID 0000.0001)      cg2d_last_res =   7.85333254453950E-12
(PID.TID 0000.0001) // =======================================================
(PID.TID 0000.0001) // Begin MONITOR dynamic field statistics
(PID.TID 0000.0001) // =======================================================
(PID.TID 0000.0001) %MON time_tsnumber                =                   661
(PID.TID 0000.0001) %MON time_secondsf                =   6.6100000000000E+04
(PID.TID 0000.0001) %MON dynstat_eta_max              =   5.7982768930286E+00
(PID.TID 0000.0001) %MON dynstat_eta_min              =  -1.4191276029002E+01
(PID.TID 0000.0001) %MON dynstat_eta_mean             =  -2.5038306656894E+00
(PID.TID 0000.0001) %MON dynstat_eta_sd               =   4.9498694305482E+00
(PID.TID 0000.0001) %MON dynstat_eta_del2             =   2.0714295397662E-01
(PID.TID 0000.0001) %MON dynstat_uvel_max             =   1.8631091554919E-03
(PID.TID 0000.0001) %MON dynstat_uvel_min             =  -7.9107737735749E-03
(PID.TID 0000.0001) %MON dynstat_uvel_mean            =  -1.1764240820069E-07
(PID.TID 0000.0001) %MON dynstat_uvel_sd              =   2.6221842143783E-04
(PID.TID 0000.0001) %MON dynstat_uvel_del2            =   4.4769597525942E-07
(PID.TID 0000.0001) %MON dynstat_vvel_max             =   6.6133511775313E-03
(PID.TID 0000.0001) %MON dynstat_vvel_min             =  -3.3735851962158E-03
(PID.TID 0000.0001) %MON dynstat_vvel_mean            =   1.4973379810195E-05
(PID.TID 0000.0001) %MON dynstat_vvel_sd              =   1.9129020346754E-04
(PID.TID 0000.0001) %MON dynstat_vvel_del2            =   4.2621346362569E-07
(PID.TID 0000.0001) %MON dynstat_wvel_max             =   2.7434993304762E-04
(PID.TID 0000.0001) %MON dynstat_wvel_min             =  -2.9645061212626E-04
(PID.TID 0000.0001) %MON dynstat_wvel_mean            =   6.6342853773603E-09
(PID.TID 0000.0001) %MON dynstat_wvel_sd              =   1.9680749341918E-05
(PID.TID 0000.0001) %MON dynstat_wvel_del2            =   8.4561501607691E-08
(PID.TID 0000.0001) %MON dynstat_theta_max            =   1.2000000000000E+00
(PID.TID 0000.0001) %MON dynstat_theta_min            =  -1.0000000000000E+00
(PID.TID 0000.0001) %MON dynstat_theta_mean           =   5.6896472419331E-01
(PID.TID 0000.0001) %MON dynstat_theta_sd             =   8.6851025528466E-01
(PID.TID 0000.0001) %MON dynstat_theta_del2           =   1.3148939050502E-06
(PID.TID 0000.0001) %MON dynstat_salt_max             =   3.4700000000000E+01
(PID.TID 0000.0001) %MON dynstat_salt_min             =   3.4000000000000E+01
(PID.TID 0000.0001) %MON dynstat_salt_mean            =   3.4499200041179E+01
(PID.TID 0000.0001) %MON dynstat_salt_sd              =   2.7633925317326E-01
(PID.TID 0000.0001) %MON dynstat_salt_del2            =   4.9992503160524E-07
(PID.TID 0000.0001) %MON advcfl_uvel_max              =   7.9107737735749E-04
(PID.TID 0000.0001) %MON advcfl_vvel_max              =   6.6133511775313E-04
(PID.TID 0000.0001) %MON advcfl_wvel_max              =   1.4822530606313E-03
(PID.TID 0000.0001) %MON advcfl_W_hf_max              =   1.4822530606313E-03
(PID.TID 0000.0001) %MON pe_b_mean                    =  -8.2988667906392E-01
(PID.TID 0000.0001) %MON ke_max                       =   1.8941190819749E-05
(PID.TID 0000.0001) %MON ke_mean                      =   5.2103764193500E-08
(PID.TID 0000.0001) %MON ke_vol                       =   4.2725073234091E+12
(PID.TID 0000.0001) // =======================================================
(PID.TID 0000.0001) // End MONITOR dynamic field statistics
(PID.TID 0000.0001) // =======================================================
(PID.TID 0000.0001) // =======================================================
(PID.TID 0000.0001) // Begin OBCS MONITOR field statistics
(PID.TID 0000.0001) // =======================================================
(PID.TID 0000.0001) %MON obc_N_vVel_max               =   1.4737193022568E-05
(PID.TID 0000.0001) %MON obc_N_vVel_min               =   1.4737193022568E-05
(PID.TID 0000.0001) %MON obc_N_vVel_mean              =   1.4737193022568E-05
(PID.TID 0000.0001) %MON obc_N_vVel_sd                =  -1.0675799780763E-23
(PID.TID 0000.0001) %MON obc_N_vVel_Int               =   9.7265473948950E+02
(PID.TID 0000.0001) // =======================================================
(PID.TID 0000.0001) // End OBCS MONITOR field statistics
(PID.TID 0000.0001) // =======================================================
 cg2d: Sum(rhs),rhsMax =   4.50834981863441E+00  2.99904768487109E+02
(PID.TID 0000.0001)      cg2d_init_res =   6.01052135080405E-06
(PID.TID 0000.0001)      cg2d_iters(min,last) =      -1      78
(PID.TID 0000.0001)      cg2d_last_res =   7.86963871064417E-12
(PID.TID 0000.0001) // =======================================================
(PID.TID 0000.0001) // Begin MONITOR dynamic field statistics
(PID.TID 0000.0001) // =======================================================
(PID.TID 0000.0001) %MON time_tsnumber                =                   662
(PID.TID 0000.0001) %MON time_secondsf                =   6.6200000000000E+04
(PID.TID 0000.0001) %MON dynstat_eta_max              =   5.7982653072367E+00
(PID.TID 0000.0001) %MON dynstat_eta_min              =  -1.4191300675674E+01
(PID.TID 0000.0001) %MON dynstat_eta_mean             =  -2.5038437196601E+00
(PID.TID 0000.0001) %MON dynstat_eta_sd               =   4.9498737981597E+00
(PID.TID 0000.0001) %MON dynstat_eta_del2             =   2.0714296600706E-01
(PID.TID 0000.0001) %MON dynstat_uvel_max             =   1.8661889508294E-03
(PID.TID 0000.0001) %MON dynstat_uvel_min             =  -7.9331233831166E-03
(PID.TID 0000.0001) %MON dynstat_uvel_mean            =  -1.1760400901503E-07
(PID.TID 0000.0001) %MON dynstat_uvel_sd              =   2.6270508573228E-04
(PID.TID 0000.0001) %MON dynstat_uvel_del2            =   4.4852305273233E-07
(PID.TID 0000.0001) %MON dynstat_vvel_max             =   6.6282279702081E-03
(PID.TID 0000.0001) %MON dynstat_vvel_min             =  -3.3822433785211E-03
(PID.TID 0000.0001) %MON dynstat_vvel_mean            =   1.4973697808037E-05
(PID.TID 0000.0001) %MON dynstat_vvel_sd              =   1.9155707906293E-04
(PID.TID 0000.0001) %MON dynstat_vvel_del2            =   4.2677929838868E-07
(PID.TID 0000.0001) %MON dynstat_wvel_max             =   2.7535147161310E-04
(PID.TID 0000.0001) %MON dynstat_wvel_min             =  -2.9732867704148E-04
(PID.TID 0000.0001) %MON dynstat_wvel_mean            =   6.6337685627202E-09
(PID.TID 0000.0001) %MON dynstat_wvel_sd              =   1.9670085943773E-05
(PID.TID 0000.0001) %MON dynstat_wvel_del2            =   8.4785441909407E-08
(PID.TID 0000.0001) %MON dynstat_theta_max            =   1.2000000000000E+00
(PID.TID 0000.0001) %MON dynstat_theta_min            =  -1.0000000000000E+00
(PID.TID 0000.0001) %MON dynstat_theta_mean           =   5.6896432913325E-01
(PID.TID 0000.0001) %MON dynstat_theta_sd             =   8.6851003949841E-01
(PID.TID 0000.0001) %MON dynstat_theta_del2           =   1.3168473850406E-06
(PID.TID 0000.0001) %MON dynstat_salt_max             =   3.4700000000000E+01
(PID.TID 0000.0001) %MON dynstat_salt_min             =   3.4000000000000E+01
(PID.TID 0000.0001) %MON dynstat_salt_mean            =   3.4499199883292E+01
(PID.TID 0000.0001) %MON dynstat_salt_sd              =   2.7633917193965E-01
(PID.TID 0000.0001) %MON dynstat_salt_del2            =   5.0074989545563E-07
(PID.TID 0000.0001) %MON advcfl_uvel_max              =   7.9331233831166E-04
(PID.TID 0000.0001) %MON advcfl_vvel_max              =   6.6282279702081E-04
(PID.TID 0000.0001) %MON advcfl_wvel_max              =   1.4866433852074E-03
(PID.TID 0000.0001) %MON advcfl_W_hf_max              =   1.4866433852074E-03
(PID.TID 0000.0001) %MON pe_b_mean                    =  -8.2989036751972E-01
(PID.TID 0000.0001) %MON ke_max                       =   1.9046895079559E-05
(PID.TID 0000.0001) %MON ke_mean                      =   5.2280050940753E-08
(PID.TID 0000.0001) %MON ke_vol                       =   4.2725072458458E+12
(PID.TID 0000.0001) // =======================================================
(PID.TID 0000.0001) // End MONITOR dynamic field statistics
(PID.TID 0000.0001) // =======================================================
(PID.TID 0000.0001) // =======================================================
(PID.TID 0000.0001) // Begin OBCS MONITOR field statistics
(PID.TID 0000.0001) // =======================================================
(PID.TID 0000.0001) %MON obc_N_vVel_max               =   1.4737523038581E-05
(PID.TID 0000.0001) %MON obc_N_vVel_min               =   1.4737523038581E-05
(PID.TID 0000.0001) %MON obc_N_vVel_mean              =   1.4737523038581E-05
(PID.TID 0000.0001) %MON obc_N_vVel_sd                =   6.0157419990551E-13
(PID.TID 0000.0001) %MON obc_N_vVel_Int               =   9.7267652054637E+02
(PID.TID 0000.0001) // =======================================================
(PID.TID 0000.0001) // End OBCS MONITOR field statistics
(PID.TID 0000.0001) // =======================================================
 cg2d: Sum(rhs),rhsMax =   4.50837217981888E+00  2.99904844072742E+02
(PID.TID 0000.0001)      cg2d_init_res =   6.00842602441065E-06
(PID.TID 0000.0001)      cg2d_iters(min,last) =      -1      78
(PID.TID 0000.0001)      cg2d_last_res =   7.88687633510932E-12
(PID.TID 0000.0001) // =======================================================
(PID.TID 0000.0001) // Begin MONITOR dynamic field statistics
(PID.TID 0000.0001) // =======================================================
(PID.TID 0000.0001) %MON time_tsnumber                =                   663
(PID.TID 0000.0001) %MON time_secondsf                =   6.6300000000000E+04
(PID.TID 0000.0001) %MON dynstat_eta_max              =   5.7982537437336E+00
(PID.TID 0000.0001) %MON dynstat_eta_min              =  -1.4191325322343E+01
(PID.TID 0000.0001) %MON dynstat_eta_mean             =  -2.5038567696490E+00
(PID.TID 0000.0001) %MON dynstat_eta_sd               =   4.9498781646934E+00
(PID.TID 0000.0001) %MON dynstat_eta_del2             =   2.0714297806109E-01
(PID.TID 0000.0001) %MON dynstat_uvel_max             =   1.8692662117892E-03
(PID.TID 0000.0001) %MON dynstat_uvel_min             =  -7.9555245573593E-03
(PID.TID 0000.0001) %MON dynstat_uvel_mean            =  -1.1757063838157E-07
(PID.TID 0000.0001) %MON dynstat_uvel_sd              =   2.6319399364687E-04
(PID.TID 0000.0001) %MON dynstat_uvel_del2            =   4.4935188816009E-07
(PID.TID 0000.0001) %MON dynstat_vvel_max             =   6.6431254082060E-03
(PID.TID 0000.0001) %MON dynstat_vvel_min             =  -3.3909075974226E-03
(PID.TID 0000.0001) %MON dynstat_vvel_mean            =   1.4973860148349E-05
(PID.TID 0000.0001) %MON dynstat_vvel_sd              =   1.9178261184127E-04
(PID.TID 0000.0001) %MON dynstat_vvel_del2            =   4.2690628734796E-07
(PID.TID 0000.0001) %MON dynstat_wvel_max             =   2.7635544961827E-04
(PID.TID 0000.0001) %MON dynstat_wvel_min             =  -2.9820889856037E-04
(PID.TID 0000.0001) %MON dynstat_wvel_mean            =   6.6329891901699E-09
(PID.TID 0000.0001) %MON dynstat_wvel_sd              =   1.9551168826628E-05
(PID.TID 0000.0001) %MON dynstat_wvel_del2            =   8.4322470108043E-08
(PID.TID 0000.0001) %MON dynstat_theta_max            =   1.2000000000000E+00
(PID.TID 0000.0001) %MON dynstat_theta_min            =  -1.0000000000000E+00
(PID.TID 0000.0001) %MON dynstat_theta_mean           =   5.6896393332025E-01
(PID.TID 0000.0001) %MON dynstat_theta_sd             =   8.6850982350902E-01
(PID.TID 0000.0001) %MON dynstat_theta_del2           =   1.3193279423704E-06
(PID.TID 0000.0001) %MON dynstat_salt_max             =   3.4700000000000E+01
(PID.TID 0000.0001) %MON dynstat_salt_min             =   3.4000000000000E+01
(PID.TID 0000.0001) %MON dynstat_salt_mean            =   3.4499199725124E+01
(PID.TID 0000.0001) %MON dynstat_salt_sd              =   2.7633909061712E-01
(PID.TID 0000.0001) %MON dynstat_salt_del2            =   5.0171569219294E-07
(PID.TID 0000.0001) %MON advcfl_uvel_max              =   7.9555245573593E-04
(PID.TID 0000.0001) %MON advcfl_vvel_max              =   6.6431254082060E-04
(PID.TID 0000.0001) %MON advcfl_wvel_max              =   1.4910444928018E-03
(PID.TID 0000.0001) %MON advcfl_W_hf_max              =   1.4910444928018E-03
(PID.TID 0000.0001) %MON pe_b_mean                    =  -8.2989405449000E-01
(PID.TID 0000.0001) %MON ke_max                       =   1.9153148297860E-05
(PID.TID 0000.0001) %MON ke_mean                      =   5.2449288554420E-08
(PID.TID 0000.0001) %MON ke_vol                       =   4.2725071683052E+12
(PID.TID 0000.0001) // =======================================================
(PID.TID 0000.0001) // End MONITOR dynamic field statistics
(PID.TID 0000.0001) // =======================================================
(PID.TID 0000.0001) // =======================================================
(PID.TID 0000.0001) // Begin OBCS MONITOR field statistics
(PID.TID 0000.0001) // =======================================================
(PID.TID 0000.0001) %MON obc_N_vVel_max               =   1.4737725367831E-05
(PID.TID 0000.0001) %MON obc_N_vVel_min               =   1.4737725367830E-05
(PID.TID 0000.0001) %MON obc_N_vVel_mean              =   1.4737725367831E-05
(PID.TID 0000.0001) %MON obc_N_vVel_sd                =  -1.3570931924698E-23
(PID.TID 0000.0001) %MON obc_N_vVel_Int               =   9.7268987427683E+02
(PID.TID 0000.0001) // =======================================================
(PID.TID 0000.0001) // End OBCS MONITOR field statistics
(PID.TID 0000.0001) // =======================================================
 cg2d: Sum(rhs),rhsMax =   4.50839453386789E+00  2.99904919635716E+02
(PID.TID 0000.0001)      cg2d_init_res =   5.99928022102489E-06
(PID.TID 0000.0001)      cg2d_iters(min,last) =      -1      78
(PID.TID 0000.0001)      cg2d_last_res =   7.90497863093520E-12
(PID.TID 0000.0001) // =======================================================
(PID.TID 0000.0001) // Begin MONITOR dynamic field statistics
(PID.TID 0000.0001) // =======================================================
(PID.TID 0000.0001) %MON time_tsnumber                =                   664
(PID.TID 0000.0001) %MON time_secondsf                =   6.6400000000000E+04
(PID.TID 0000.0001) %MON dynstat_eta_max              =   5.7982422027309E+00
(PID.TID 0000.0001) %MON dynstat_eta_min              =  -1.4191349968620E+01
(PID.TID 0000.0001) %MON dynstat_eta_mean             =  -2.5038698154921E+00
(PID.TID 0000.0001) %MON dynstat_eta_sd               =   4.9498825300983E+00
(PID.TID 0000.0001) %MON dynstat_eta_del2             =   2.0714299013891E-01
(PID.TID 0000.0001) %MON dynstat_uvel_max             =   1.8723409543973E-03
(PID.TID 0000.0001) %MON dynstat_uvel_min             =  -7.9779773843889E-03
(PID.TID 0000.0001) %MON dynstat_uvel_mean            =  -1.1754402814928E-07
(PID.TID 0000.0001) %MON dynstat_uvel_sd              =   2.6368520372012E-04
(PID.TID 0000.0001) %MON dynstat_uvel_del2            =   4.5018256728660E-07
(PID.TID 0000.0001) %MON dynstat_vvel_max             =   6.6580435446673E-03
(PID.TID 0000.0001) %MON dynstat_vvel_min             =  -3.3995778702902E-03
(PID.TID 0000.0001) %MON dynstat_vvel_mean            =   1.4973867301119E-05
(PID.TID 0000.0001) %MON dynstat_vvel_sd              =   1.9197025607578E-04
(PID.TID 0000.0001) %MON dynstat_vvel_del2            =   4.2663126179147E-07
(PID.TID 0000.0001) %MON dynstat_wvel_max             =   2.7736187346328E-04
(PID.TID 0000.0001) %MON dynstat_wvel_min             =  -2.9909128548402E-04
(PID.TID 0000.0001) %MON dynstat_wvel_mean            =   6.6319848749734E-09
(PID.TID 0000.0001) %MON dynstat_wvel_sd              =   1.9331016700619E-05
(PID.TID 0000.0001) %MON dynstat_wvel_del2            =   8.3192745297963E-08
(PID.TID 0000.0001) %MON dynstat_theta_max            =   1.2000000000000E+00
(PID.TID 0000.0001) %MON dynstat_theta_min            =  -1.0000000000000E+00
(PID.TID 0000.0001) %MON dynstat_theta_mean           =   5.6896353674896E-01
(PID.TID 0000.0001) %MON dynstat_theta_sd             =   8.6850960733569E-01
(PID.TID 0000.0001) %MON dynstat_theta_del2           =   1.3222767960240E-06
(PID.TID 0000.0001) %MON dynstat_salt_max             =   3.4700000000000E+01
(PID.TID 0000.0001) %MON dynstat_salt_min             =   3.4000000000000E+01
(PID.TID 0000.0001) %MON dynstat_salt_mean            =   3.4499199566674E+01
(PID.TID 0000.0001) %MON dynstat_salt_sd              =   2.7633900921124E-01
(PID.TID 0000.0001) %MON dynstat_salt_del2            =   5.0280673556489E-07
(PID.TID 0000.0001) %MON advcfl_uvel_max              =   7.9779773843889E-04
(PID.TID 0000.0001) %MON advcfl_vvel_max              =   6.6580435446673E-04
(PID.TID 0000.0001) %MON advcfl_wvel_max              =   1.4954564274201E-03
(PID.TID 0000.0001) %MON advcfl_W_hf_max              =   1.4954564274201E-03
(PID.TID 0000.0001) %MON pe_b_mean                    =  -8.2989773992933E-01
(PID.TID 0000.0001) %MON ke_max                       =   1.9259952930060E-05
(PID.TID 0000.0001) %MON ke_mean                      =   5.2612130480696E-08
(PID.TID 0000.0001) %MON ke_vol                       =   4.2725070907883E+12
(PID.TID 0000.0001) // =======================================================
(PID.TID 0000.0001) // End MONITOR dynamic field statistics
(PID.TID 0000.0001) // =======================================================
(PID.TID 0000.0001) // =======================================================
(PID.TID 0000.0001) // Begin OBCS MONITOR field statistics
(PID.TID 0000.0001) // =======================================================
(PID.TID 0000.0001) %MON obc_N_vVel_max               =   1.4737797512222E-05
(PID.TID 0000.0001) %MON obc_N_vVel_min               =   1.4737797512221E-05
(PID.TID 0000.0001) %MON obc_N_vVel_mean              =   1.4737797512222E-05
(PID.TID 0000.0001) %MON obc_N_vVel_sd                =  -1.3157341618422E-23
(PID.TID 0000.0001) %MON obc_N_vVel_Int               =   9.7269463580664E+02
(PID.TID 0000.0001) // =======================================================
(PID.TID 0000.0001) // End OBCS MONITOR field statistics
(PID.TID 0000.0001) // =======================================================
 cg2d: Sum(rhs),rhsMax =   4.50841688045285E+00  2.99904995178424E+02
(PID.TID 0000.0001)      cg2d_init_res =   5.98372878709435E-06
(PID.TID 0000.0001)      cg2d_iters(min,last) =      -1      78
(PID.TID 0000.0001)      cg2d_last_res =   7.92401329400067E-12
(PID.TID 0000.0001) // =======================================================
(PID.TID 0000.0001) // Begin MONITOR dynamic field statistics
(PID.TID 0000.0001) // =======================================================
(PID.TID 0000.0001) %MON time_tsnumber                =                   665
(PID.TID 0000.0001) %MON time_secondsf                =   6.6500000000000E+04
(PID.TID 0000.0001) %MON dynstat_eta_max              =   5.7982306844192E+00
(PID.TID 0000.0001) %MON dynstat_eta_min              =  -1.4191374614106E+01
(PID.TID 0000.0001) %MON dynstat_eta_mean             =  -2.5038828570269E+00
(PID.TID 0000.0001) %MON dynstat_eta_sd               =   4.9498868943278E+00
(PID.TID 0000.0001) %MON dynstat_eta_del2             =   2.0714300224077E-01
(PID.TID 0000.0001) %MON dynstat_uvel_max             =   1.8754131972227E-03
(PID.TID 0000.0001) %MON dynstat_uvel_min             =  -8.0004819519752E-03
(PID.TID 0000.0001) %MON dynstat_uvel_mean            =  -1.1752502235966E-07
(PID.TID 0000.0001) %MON dynstat_uvel_sd              =   2.6417876891408E-04
(PID.TID 0000.0001) %MON dynstat_uvel_del2            =   4.5101512714298E-07
(PID.TID 0000.0001) %MON dynstat_vvel_max             =   6.6729824326011E-03
(PID.TID 0000.0001) %MON dynstat_vvel_min             =  -3.4082542136398E-03
(PID.TID 0000.0001) %MON dynstat_vvel_mean            =   1.4973724693748E-05
(PID.TID 0000.0001) %MON dynstat_vvel_sd              =   1.9212628255358E-04
(PID.TID 0000.0001) %MON dynstat_vvel_del2            =   4.2601961865767E-07
(PID.TID 0000.0001) %MON dynstat_wvel_max             =   2.7837074959459E-04
(PID.TID 0000.0001) %MON dynstat_wvel_min             =  -2.9997584679099E-04
(PID.TID 0000.0001) %MON dynstat_wvel_mean            =   6.6307999430951E-09
(PID.TID 0000.0001) %MON dynstat_wvel_sd              =   1.9022726934977E-05
(PID.TID 0000.0001) %MON dynstat_wvel_del2            =   8.1451526124695E-08
(PID.TID 0000.0001) %MON dynstat_theta_max            =   1.2000000000000E+00
(PID.TID 0000.0001) %MON dynstat_theta_min            =  -1.0000000000000E+00
(PID.TID 0000.0001) %MON dynstat_theta_mean           =   5.6896313941888E-01
(PID.TID 0000.0001) %MON dynstat_theta_sd             =   8.6850939099663E-01
(PID.TID 0000.0001) %MON dynstat_theta_del2           =   1.3256021455232E-06
(PID.TID 0000.0001) %MON dynstat_salt_max             =   3.4700000000000E+01
(PID.TID 0000.0001) %MON dynstat_salt_min             =   3.4000000000000E+01
(PID.TID 0000.0001) %MON dynstat_salt_mean            =   3.4499199407940E+01
(PID.TID 0000.0001) %MON dynstat_salt_sd              =   2.7633892772810E-01
(PID.TID 0000.0001) %MON dynstat_salt_del2            =   5.0399861776385E-07
(PID.TID 0000.0001) %MON advcfl_uvel_max              =   8.0004819519752E-04
(PID.TID 0000.0001) %MON advcfl_vvel_max              =   6.6729824326011E-04
(PID.TID 0000.0001) %MON advcfl_wvel_max              =   1.4998792339549E-03
(PID.TID 0000.0001) %MON advcfl_W_hf_max              =   1.4998792339549E-03
(PID.TID 0000.0001) %MON pe_b_mean                    =  -8.2990142379393E-01
(PID.TID 0000.0001) %MON ke_max                       =   1.9367311441912E-05
(PID.TID 0000.0001) %MON ke_mean                      =   5.2769777170899E-08
(PID.TID 0000.0001) %MON ke_vol                       =   4.2725070132960E+12
(PID.TID 0000.0001) // =======================================================
(PID.TID 0000.0001) // End MONITOR dynamic field statistics
(PID.TID 0000.0001) // =======================================================
(PID.TID 0000.0001) // =======================================================
(PID.TID 0000.0001) // Begin OBCS MONITOR field statistics
(PID.TID 0000.0001) // =======================================================
(PID.TID 0000.0001) %MON obc_N_vVel_max               =   1.4737741124185E-05
(PID.TID 0000.0001) %MON obc_N_vVel_min               =   1.4737741124185E-05
(PID.TID 0000.0001) %MON obc_N_vVel_mean              =   1.4737741124185E-05
(PID.TID 0000.0001) %MON obc_N_vVel_sd                =   1.5752910326854E-12
(PID.TID 0000.0001) %MON obc_N_vVel_Int               =   9.7269091419620E+02
(PID.TID 0000.0001) // =======================================================
(PID.TID 0000.0001) // End OBCS MONITOR field statistics
(PID.TID 0000.0001) // =======================================================
 cg2d: Sum(rhs),rhsMax =   4.50843921924853E+00  2.99905070703500E+02
(PID.TID 0000.0001)      cg2d_init_res =   5.96287501024044E-06
(PID.TID 0000.0001)      cg2d_iters(min,last) =      -1      78
(PID.TID 0000.0001)      cg2d_last_res =   7.94389628196972E-12
(PID.TID 0000.0001) // =======================================================
(PID.TID 0000.0001) // Begin MONITOR dynamic field statistics
(PID.TID 0000.0001) // =======================================================
(PID.TID 0000.0001) %MON time_tsnumber                =                   666
(PID.TID 0000.0001) %MON time_secondsf                =   6.6600000000000E+04
(PID.TID 0000.0001) %MON dynstat_eta_max              =   5.7982191889653E+00
(PID.TID 0000.0001) %MON dynstat_eta_min              =  -1.4191399258443E+01
(PID.TID 0000.0001) %MON dynstat_eta_mean             =  -2.5038958940947E+00
(PID.TID 0000.0001) %MON dynstat_eta_sd               =   4.9498912573383E+00
(PID.TID 0000.0001) %MON dynstat_eta_del2             =   2.0714301436678E-01
(PID.TID 0000.0001) %MON dynstat_uvel_max             =   1.8784829612075E-03
(PID.TID 0000.0001) %MON dynstat_uvel_min             =  -8.0230383474182E-03
(PID.TID 0000.0001) %MON dynstat_uvel_mean            =  -1.1751360592364E-07
(PID.TID 0000.0001) %MON dynstat_uvel_sd              =   2.6467473697647E-04
(PID.TID 0000.0001) %MON dynstat_uvel_del2            =   4.5184956808269E-07
(PID.TID 0000.0001) %MON dynstat_vvel_max             =   6.6879421249997E-03
(PID.TID 0000.0001) %MON dynstat_vvel_min             =  -3.4169366428625E-03
(PID.TID 0000.0001) %MON dynstat_vvel_mean            =   1.4973442435402E-05
(PID.TID 0000.0001) %MON dynstat_vvel_sd              =   1.9225927850139E-04
(PID.TID 0000.0001) %MON dynstat_vvel_del2            =   4.2516083640788E-07
(PID.TID 0000.0001) %MON dynstat_wvel_max             =   2.7938208448359E-04
(PID.TID 0000.0001) %MON dynstat_wvel_min             =  -3.0086259160778E-04
(PID.TID 0000.0001) %MON dynstat_wvel_mean            =   6.6294839186297E-09
(PID.TID 0000.0001) %MON dynstat_wvel_sd              =   1.8645141181876E-05
(PID.TID 0000.0001) %MON dynstat_wvel_del2            =   7.9189395339507E-08
(PID.TID 0000.0001) %MON dynstat_theta_max            =   1.2000000000000E+00
(PID.TID 0000.0001) %MON dynstat_theta_min            =  -1.0000000000000E+00
(PID.TID 0000.0001) %MON dynstat_theta_mean           =   5.6896274133426E-01
(PID.TID 0000.0001) %MON dynstat_theta_sd             =   8.6850917450713E-01
(PID.TID 0000.0001) %MON dynstat_theta_del2           =   1.3291859165810E-06
(PID.TID 0000.0001) %MON dynstat_salt_max             =   3.4700000000000E+01
(PID.TID 0000.0001) %MON dynstat_salt_min             =   3.4000000000000E+01
(PID.TID 0000.0001) %MON dynstat_salt_mean            =   3.4499199248924E+01
(PID.TID 0000.0001) %MON dynstat_salt_sd              =   2.7633884617226E-01
(PID.TID 0000.0001) %MON dynstat_salt_del2            =   5.0525991290563E-07
(PID.TID 0000.0001) %MON advcfl_uvel_max              =   8.0230383474182E-04
(PID.TID 0000.0001) %MON advcfl_vvel_max              =   6.6879421249997E-04
(PID.TID 0000.0001) %MON advcfl_wvel_max              =   1.5043129580389E-03
(PID.TID 0000.0001) %MON advcfl_W_hf_max              =   1.5043129580389E-03
(PID.TID 0000.0001) %MON pe_b_mean                    =  -8.2990510604198E-01
(PID.TID 0000.0001) %MON ke_max                       =   1.9475226308428E-05
(PID.TID 0000.0001) %MON ke_mean                      =   5.2923880574223E-08
(PID.TID 0000.0001) %MON ke_vol                       =   4.2725069358293E+12
(PID.TID 0000.0001) // =======================================================
(PID.TID 0000.0001) // End MONITOR dynamic field statistics
(PID.TID 0000.0001) // =======================================================
(PID.TID 0000.0001) // =======================================================
(PID.TID 0000.0001) // Begin OBCS MONITOR field statistics
(PID.TID 0000.0001) // =======================================================
(PID.TID 0000.0001) %MON obc_N_vVel_max               =   1.4737561877438E-05
(PID.TID 0000.0001) %MON obc_N_vVel_min               =   1.4737561877438E-05
(PID.TID 0000.0001) %MON obc_N_vVel_mean              =   1.4737561877438E-05
(PID.TID 0000.0001) %MON obc_N_vVel_sd                =  -1.2433558582438E-23
(PID.TID 0000.0001) %MON obc_N_vVel_Int               =   9.7267908391094E+02
(PID.TID 0000.0001) // =======================================================
(PID.TID 0000.0001) // End OBCS MONITOR field statistics
(PID.TID 0000.0001) // =======================================================
 cg2d: Sum(rhs),rhsMax =   4.50846154994630E+00  2.99905146213798E+02
(PID.TID 0000.0001)      cg2d_init_res =   5.93822460336321E-06
(PID.TID 0000.0001)      cg2d_iters(min,last) =      -1      78
(PID.TID 0000.0001)      cg2d_last_res =   7.96473329691795E-12
(PID.TID 0000.0001) // =======================================================
(PID.TID 0000.0001) // Begin MONITOR dynamic field statistics
(PID.TID 0000.0001) // =======================================================
(PID.TID 0000.0001) %MON time_tsnumber                =                   667
(PID.TID 0000.0001) %MON time_secondsf                =   6.6700000000000E+04
(PID.TID 0000.0001) %MON dynstat_eta_max              =   5.7982077165167E+00
(PID.TID 0000.0001) %MON dynstat_eta_min              =  -1.4191423901302E+01
(PID.TID 0000.0001) %MON dynstat_eta_mean             =  -2.5039089265480E+00
(PID.TID 0000.0001) %MON dynstat_eta_sd               =   4.9498956190946E+00
(PID.TID 0000.0001) %MON dynstat_eta_del2             =   2.0714302651713E-01
(PID.TID 0000.0001) %MON dynstat_uvel_max             =   1.8815502696721E-03
(PID.TID 0000.0001) %MON dynstat_uvel_min             =  -8.0456466576146E-03
(PID.TID 0000.0001) %MON dynstat_uvel_mean            =  -1.1750903026198E-07
(PID.TID 0000.0001) %MON dynstat_uvel_sd              =   2.6517315103608E-04
(PID.TID 0000.0001) %MON dynstat_uvel_del2            =   4.5268586713246E-07
(PID.TID 0000.0001) %MON dynstat_vvel_max             =   6.7029226747142E-03
(PID.TID 0000.0001) %MON dynstat_vvel_min             =  -3.4256251726257E-03
(PID.TID 0000.0001) %MON dynstat_vvel_mean            =   1.4973034906044E-05
(PID.TID 0000.0001) %MON dynstat_vvel_sd              =   1.9237948525596E-04
(PID.TID 0000.0001) %MON dynstat_vvel_del2            =   4.2416227765852E-07
(PID.TID 0000.0001) %MON dynstat_wvel_max             =   2.8039588463169E-04
(PID.TID 0000.0001) %MON dynstat_wvel_min             =  -3.0175152913338E-04
(PID.TID 0000.0001) %MON dynstat_wvel_mean            =   6.6280896151098E-09
(PID.TID 0000.0001) %MON dynstat_wvel_sd              =   1.8222282415462E-05
(PID.TID 0000.0001) %MON dynstat_wvel_del2            =   7.6532382851713E-08
(PID.TID 0000.0001) %MON dynstat_theta_max            =   1.2000000000000E+00
(PID.TID 0000.0001) %MON dynstat_theta_min            =  -1.0000000000000E+00
(PID.TID 0000.0001) %MON dynstat_theta_mean           =   5.6896234250370E-01
(PID.TID 0000.0001) %MON dynstat_theta_sd             =   8.6850895787554E-01
(PID.TID 0000.0001) %MON dynstat_theta_del2           =   1.3328924903997E-06
(PID.TID 0000.0001) %MON dynstat_salt_max             =   3.4700000000000E+01
(PID.TID 0000.0001) %MON dynstat_salt_min             =   3.4000000000000E+01
(PID.TID 0000.0001) %MON dynstat_salt_mean            =   3.4499199089628E+01
(PID.TID 0000.0001) %MON dynstat_salt_sd              =   2.7633876454627E-01
(PID.TID 0000.0001) %MON dynstat_salt_del2            =   5.0655453281598E-07
(PID.TID 0000.0001) %MON advcfl_uvel_max              =   8.0456466576146E-04
(PID.TID 0000.0001) %MON advcfl_vvel_max              =   6.7029226747142E-04
(PID.TID 0000.0001) %MON advcfl_wvel_max              =   1.5087576456669E-03
(PID.TID 0000.0001) %MON advcfl_W_hf_max              =   1.5087576456669E-03
(PID.TID 0000.0001) %MON pe_b_mean                    =  -8.2990878663580E-01
(PID.TID 0000.0001) %MON ke_max                       =   1.9583700013812E-05
(PID.TID 0000.0001) %MON ke_mean                      =   5.3076416428956E-08
(PID.TID 0000.0001) %MON ke_vol                       =   4.2725068583891E+12
(PID.TID 0000.0001) // =======================================================
(PID.TID 0000.0001) // End MONITOR dynamic field statistics
(PID.TID 0000.0001) // =======================================================
(PID.TID 0000.0001) // =======================================================
(PID.TID 0000.0001) // Begin OBCS MONITOR field statistics
(PID.TID 0000.0001) // =======================================================
(PID.TID 0000.0001) %MON obc_N_vVel_max               =   1.4737269257265E-05
(PID.TID 0000.0001) %MON obc_N_vVel_min               =   1.4737269257265E-05
(PID.TID 0000.0001) %MON obc_N_vVel_mean              =   1.4737269257265E-05
(PID.TID 0000.0001) %MON obc_N_vVel_sd                =   4.4816268528909E-12
(PID.TID 0000.0001) %MON obc_N_vVel_Int               =   9.7265977097947E+02
(PID.TID 0000.0001) // =======================================================
(PID.TID 0000.0001) // End OBCS MONITOR field statistics
(PID.TID 0000.0001) // =======================================================
 cg2d: Sum(rhs),rhsMax =   4.50848387225908E+00  2.99905221712338E+02
(PID.TID 0000.0001)      cg2d_init_res =   5.91157499509720E-06
(PID.TID 0000.0001)      cg2d_iters(min,last) =      -1      78
(PID.TID 0000.0001)      cg2d_last_res =   7.98665190023750E-12
(PID.TID 0000.0001) // =======================================================
(PID.TID 0000.0001) // Begin MONITOR dynamic field statistics
(PID.TID 0000.0001) // =======================================================
(PID.TID 0000.0001) %MON time_tsnumber                =                   668
(PID.TID 0000.0001) %MON time_secondsf                =   6.6800000000000E+04
(PID.TID 0000.0001) %MON dynstat_eta_max              =   5.7981962671998E+00
(PID.TID 0000.0001) %MON dynstat_eta_min              =  -1.4191448542417E+01
(PID.TID 0000.0001) %MON dynstat_eta_mean             =  -2.5039219542525E+00
(PID.TID 0000.0001) %MON dynstat_eta_sd               =   4.9498999795694E+00
(PID.TID 0000.0001) %MON dynstat_eta_del2             =   2.0714303869200E-01
(PID.TID 0000.0001) %MON dynstat_uvel_max             =   1.8846150736374E-03
(PID.TID 0000.0001) %MON dynstat_uvel_min             =  -8.0683069689522E-03
(PID.TID 0000.0001) %MON dynstat_uvel_mean            =  -1.1750998826231E-07
(PID.TID 0000.0001) %MON dynstat_uvel_sd              =   2.6567405042246E-04
(PID.TID 0000.0001) %MON dynstat_uvel_del2            =   4.5352399312997E-07
(PID.TID 0000.0001) %MON dynstat_vvel_max             =   6.7179241345006E-03
(PID.TID 0000.0001) %MON dynstat_vvel_min             =  -3.4343198169147E-03
(PID.TID 0000.0001) %MON dynstat_vvel_mean            =   1.4972520201651E-05
(PID.TID 0000.0001) %MON dynstat_vvel_sd              =   1.9249802108208E-04
(PID.TID 0000.0001) %MON dynstat_vvel_del2            =   4.2314156115564E-07
(PID.TID 0000.0001) %MON dynstat_wvel_max             =   2.8141215656017E-04
(PID.TID 0000.0001) %MON dynstat_wvel_min             =  -3.0264266871704E-04
(PID.TID 0000.0001) %MON dynstat_wvel_mean            =   6.6266711896257E-09
(PID.TID 0000.0001) %MON dynstat_wvel_sd              =   1.7782432326258E-05
(PID.TID 0000.0001) %MON dynstat_wvel_del2            =   7.3641287980267E-08
(PID.TID 0000.0001) %MON dynstat_theta_max            =   1.2000000000000E+00
(PID.TID 0000.0001) %MON dynstat_theta_min            =  -1.0000000000000E+00
(PID.TID 0000.0001) %MON dynstat_theta_mean           =   5.6896194293996E-01
(PID.TID 0000.0001) %MON dynstat_theta_sd             =   8.6850874109701E-01
(PID.TID 0000.0001) %MON dynstat_theta_del2           =   1.3365785834567E-06
(PID.TID 0000.0001) %MON dynstat_salt_max             =   3.4700000000000E+01
(PID.TID 0000.0001) %MON dynstat_salt_min             =   3.4000000000000E+01
(PID.TID 0000.0001) %MON dynstat_salt_mean            =   3.4499198930057E+01
(PID.TID 0000.0001) %MON dynstat_salt_sd              =   2.7633868284857E-01
(PID.TID 0000.0001) %MON dynstat_salt_del2            =   5.0784433381555E-07
(PID.TID 0000.0001) %MON advcfl_uvel_max              =   8.0683069689522E-04
(PID.TID 0000.0001) %MON advcfl_vvel_max              =   6.7179241345006E-04
(PID.TID 0000.0001) %MON advcfl_wvel_max              =   1.5132133435852E-03
(PID.TID 0000.0001) %MON advcfl_W_hf_max              =   1.5132133435852E-03
(PID.TID 0000.0001) %MON pe_b_mean                    =  -8.2991246554237E-01
(PID.TID 0000.0001) %MON ke_max                       =   1.9692735050782E-05
(PID.TID 0000.0001) %MON ke_mean                      =   5.3229534213806E-08
(PID.TID 0000.0001) %MON ke_vol                       =   4.2725067809763E+12
(PID.TID 0000.0001) // =======================================================
(PID.TID 0000.0001) // End MONITOR dynamic field statistics
(PID.TID 0000.0001) // =======================================================
(PID.TID 0000.0001) // =======================================================
(PID.TID 0000.0001) // Begin OBCS MONITOR field statistics
(PID.TID 0000.0001) // =======================================================
(PID.TID 0000.0001) %MON obc_N_vVel_max               =   1.4736876186494E-05
(PID.TID 0000.0001) %MON obc_N_vVel_min               =   1.4736876186493E-05
(PID.TID 0000.0001) %MON obc_N_vVel_mean              =   1.4736876186493E-05
(PID.TID 0000.0001) %MON obc_N_vVel_sd                =   3.3954130510820E-12
(PID.TID 0000.0001) %MON obc_N_vVel_Int               =   9.7263382830855E+02
(PID.TID 0000.0001) // =======================================================
(PID.TID 0000.0001) // End OBCS MONITOR field statistics
(PID.TID 0000.0001) // =======================================================
 cg2d: Sum(rhs),rhsMax =   4.50850618593162E+00  2.99905297202227E+02
(PID.TID 0000.0001)      cg2d_init_res =   5.88490319277578E-06
(PID.TID 0000.0001)      cg2d_iters(min,last) =      -1      78
(PID.TID 0000.0001)      cg2d_last_res =   8.00944253680678E-12
(PID.TID 0000.0001) // =======================================================
(PID.TID 0000.0001) // Begin MONITOR dynamic field statistics
(PID.TID 0000.0001) // =======================================================
(PID.TID 0000.0001) %MON time_tsnumber                =                   669
(PID.TID 0000.0001) %MON time_secondsf                =   6.6900000000000E+04
(PID.TID 0000.0001) %MON dynstat_eta_max              =   5.7981848411075E+00
(PID.TID 0000.0001) %MON dynstat_eta_min              =  -1.4191473181585E+01
(PID.TID 0000.0001) %MON dynstat_eta_mean             =  -2.5039349770924E+00
(PID.TID 0000.0001) %MON dynstat_eta_sd               =   4.9499043387427E+00
(PID.TID 0000.0001) %MON dynstat_eta_del2             =   2.0714305089154E-01
(PID.TID 0000.0001) %MON dynstat_uvel_max             =   1.8876774530523E-03
(PID.TID 0000.0001) %MON dynstat_uvel_min             =  -8.0910193674804E-03
(PID.TID 0000.0001) %MON dynstat_uvel_mean            =  -1.1751481040084E-07
(PID.TID 0000.0001) %MON dynstat_uvel_sd              =   2.6617747156754E-04
(PID.TID 0000.0001) %MON dynstat_uvel_del2            =   4.5436392086726E-07
(PID.TID 0000.0001) %MON dynstat_vvel_max             =   6.7329465571957E-03
(PID.TID 0000.0001) %MON dynstat_vvel_min             =  -3.4430205893976E-03
(PID.TID 0000.0001) %MON dynstat_vvel_mean            =   1.4971919474975E-05
(PID.TID 0000.0001) %MON dynstat_vvel_sd              =   1.9262604550729E-04
(PID.TID 0000.0001) %MON dynstat_vvel_del2            =   4.2221792279586E-07
(PID.TID 0000.0001) %MON dynstat_wvel_max             =   2.8243090680668E-04
(PID.TID 0000.0001) %MON dynstat_wvel_min             =  -3.0353601975668E-04
(PID.TID 0000.0001) %MON dynstat_wvel_mean            =   6.6252824385261E-09
(PID.TID 0000.0001) %MON dynstat_wvel_sd              =   1.7356687812633E-05
(PID.TID 0000.0001) %MON dynstat_wvel_del2            =   7.0708853207537E-08
(PID.TID 0000.0001) %MON dynstat_theta_max            =   1.2000000000000E+00
(PID.TID 0000.0001) %MON dynstat_theta_min            =  -1.0000000000000E+00
(PID.TID 0000.0001) %MON dynstat_theta_mean           =   5.6896154265987E-01
(PID.TID 0000.0001) %MON dynstat_theta_sd             =   8.6850852416577E-01
(PID.TID 0000.0001) %MON dynstat_theta_del2           =   1.3401034744413E-06
(PID.TID 0000.0001) %MON dynstat_salt_max             =   3.4700000000000E+01
(PID.TID 0000.0001) %MON dynstat_salt_min             =   3.4000000000000E+01
(PID.TID 0000.0001) %MON dynstat_salt_mean            =   3.4499198770215E+01
(PID.TID 0000.0001) %MON dynstat_salt_sd              =   2.7633860107728E-01
(PID.TID 0000.0001) %MON dynstat_salt_del2            =   5.0909181546521E-07
(PID.TID 0000.0001) %MON advcfl_uvel_max              =   8.0910193674804E-04
(PID.TID 0000.0001) %MON advcfl_vvel_max              =   6.7329465571957E-04
(PID.TID 0000.0001) %MON advcfl_wvel_max              =   1.5176800987834E-03
(PID.TID 0000.0001) %MON advcfl_W_hf_max              =   1.5176800987834E-03
(PID.TID 0000.0001) %MON pe_b_mean                    =  -8.2991614273425E-01
(PID.TID 0000.0001) %MON ke_max                       =   1.9802333920172E-05
(PID.TID 0000.0001) %MON ke_mean                      =   5.3385396179760E-08
(PID.TID 0000.0001) %MON ke_vol                       =   4.2725067035917E+12
(PID.TID 0000.0001) // =======================================================
(PID.TID 0000.0001) // End MONITOR dynamic field statistics
(PID.TID 0000.0001) // =======================================================
(PID.TID 0000.0001) // =======================================================
(PID.TID 0000.0001) // Begin OBCS MONITOR field statistics
(PID.TID 0000.0001) // =======================================================
(PID.TID 0000.0001) %MON obc_N_vVel_max               =   1.4736398564857E-05
(PID.TID 0000.0001) %MON obc_N_vVel_min               =   1.4736398564856E-05
(PID.TID 0000.0001) %MON obc_N_vVel_mean              =   1.4736398564856E-05
(PID.TID 0000.0001) %MON obc_N_vVel_sd                =   5.3299609906985E-12
(PID.TID 0000.0001) %MON obc_N_vVel_Int               =   9.7260230528050E+02
(PID.TID 0000.0001) // =======================================================
(PID.TID 0000.0001) // End OBCS MONITOR field statistics
(PID.TID 0000.0001) // =======================================================
 cg2d: Sum(rhs),rhsMax =   4.50852849074840E+00  2.99905372686624E+02
(PID.TID 0000.0001)      cg2d_init_res =   5.86020381151695E-06
(PID.TID 0000.0001)      cg2d_iters(min,last) =      -1      78
(PID.TID 0000.0001)      cg2d_last_res =   8.03236551473485E-12
(PID.TID 0000.0001) // =======================================================
(PID.TID 0000.0001) // Begin MONITOR dynamic field statistics
(PID.TID 0000.0001) // =======================================================
(PID.TID 0000.0001) %MON time_tsnumber                =                   670
(PID.TID 0000.0001) %MON time_secondsf                =   6.7000000000000E+04
(PID.TID 0000.0001) %MON dynstat_eta_max              =   5.7981734383077E+00
(PID.TID 0000.0001) %MON dynstat_eta_min              =  -1.4191497818670E+01
(PID.TID 0000.0001) %MON dynstat_eta_mean             =  -2.5039479949744E+00
(PID.TID 0000.0001) %MON dynstat_eta_sd               =   4.9499086966035E+00
(PID.TID 0000.0001) %MON dynstat_eta_del2             =   2.0714306311595E-01
(PID.TID 0000.0001) %MON dynstat_uvel_max             =   1.8907374152821E-03
(PID.TID 0000.0001) %MON dynstat_uvel_min             =  -8.1137839386471E-03
(PID.TID 0000.0001) %MON dynstat_uvel_mean            =  -1.1752169554604E-07
(PID.TID 0000.0001) %MON dynstat_uvel_sd              =   2.6668344891864E-04
(PID.TID 0000.0001) %MON dynstat_uvel_del2            =   4.5520564446918E-07
(PID.TID 0000.0001) %MON dynstat_vvel_max             =   6.7479899955591E-03
(PID.TID 0000.0001) %MON dynstat_vvel_min             =  -3.4517275036583E-03
(PID.TID 0000.0001) %MON dynstat_vvel_mean            =   1.4971256204781E-05
(PID.TID 0000.0001) %MON dynstat_vvel_sd              =   1.9277392697416E-04
(PID.TID 0000.0001) %MON dynstat_vvel_del2            =   4.2150314559267E-07
(PID.TID 0000.0001) %MON dynstat_wvel_max             =   2.8345214191886E-04
(PID.TID 0000.0001) %MON dynstat_wvel_min             =  -3.0443159169606E-04
(PID.TID 0000.0001) %MON dynstat_wvel_mean            =   6.6239746704169E-09
(PID.TID 0000.0001) %MON dynstat_wvel_sd              =   1.6976851937232E-05
(PID.TID 0000.0001) %MON dynstat_wvel_del2            =   6.7952552202471E-08
(PID.TID 0000.0001) %MON dynstat_theta_max            =   1.2000000000000E+00
(PID.TID 0000.0001) %MON dynstat_theta_min            =  -1.0000000000000E+00
(PID.TID 0000.0001) %MON dynstat_theta_mean           =   5.6896114168410E-01
(PID.TID 0000.0001) %MON dynstat_theta_sd             =   8.6850830707608E-01
(PID.TID 0000.0001) %MON dynstat_theta_del2           =   1.3433387016761E-06
(PID.TID 0000.0001) %MON dynstat_salt_max             =   3.4700000000000E+01
(PID.TID 0000.0001) %MON dynstat_salt_min             =   3.4000000000000E+01
(PID.TID 0000.0001) %MON dynstat_salt_mean            =   3.4499198610109E+01
(PID.TID 0000.0001) %MON dynstat_salt_sd              =   2.7633851923042E-01
(PID.TID 0000.0001) %MON dynstat_salt_del2            =   5.1026262566066E-07
(PID.TID 0000.0001) %MON advcfl_uvel_max              =   8.1137839386471E-04
(PID.TID 0000.0001) %MON advcfl_vvel_max              =   6.7479899955591E-04
(PID.TID 0000.0001) %MON advcfl_wvel_max              =   1.5221579584803E-03
(PID.TID 0000.0001) %MON advcfl_W_hf_max              =   1.5221579584803E-03
(PID.TID 0000.0001) %MON pe_b_mean                    =  -8.2991981819066E-01
(PID.TID 0000.0001) %MON ke_max                       =   1.9912499129437E-05
(PID.TID 0000.0001) %MON ke_mean                      =   5.3546017593654E-08
(PID.TID 0000.0001) %MON ke_vol                       =   4.2725066262361E+12
(PID.TID 0000.0001) // =======================================================
(PID.TID 0000.0001) // End MONITOR dynamic field statistics
(PID.TID 0000.0001) // =======================================================
(PID.TID 0000.0001) // =======================================================
(PID.TID 0000.0001) // Begin OBCS MONITOR field statistics
(PID.TID 0000.0001) // =======================================================
(PID.TID 0000.0001) %MON obc_N_vVel_max               =   1.4735854686464E-05
(PID.TID 0000.0001) %MON obc_N_vVel_min               =   1.4735854686464E-05
(PID.TID 0000.0001) %MON obc_N_vVel_mean              =   1.4735854686464E-05
(PID.TID 0000.0001) %MON obc_N_vVel_sd                =   1.6785660432371E-12
(PID.TID 0000.0001) %MON obc_N_vVel_Int               =   9.7256640930662E+02
(PID.TID 0000.0001) // =======================================================
(PID.TID 0000.0001) // End OBCS MONITOR field statistics
(PID.TID 0000.0001) // =======================================================
 cg2d: Sum(rhs),rhsMax =   4.50855078652930E+00  2.99905448168658E+02
(PID.TID 0000.0001)      cg2d_init_res =   5.83932771285209E-06
(PID.TID 0000.0001)      cg2d_iters(min,last) =      -1      78
(PID.TID 0000.0001)      cg2d_last_res =   8.05397199515097E-12
(PID.TID 0000.0001) // =======================================================
(PID.TID 0000.0001) // Begin MONITOR dynamic field statistics
(PID.TID 0000.0001) // =======================================================
(PID.TID 0000.0001) %MON time_tsnumber                =                   671
(PID.TID 0000.0001) %MON time_secondsf                =   6.7100000000000E+04
(PID.TID 0000.0001) %MON dynstat_eta_max              =   5.7981620588325E+00
(PID.TID 0000.0001) %MON dynstat_eta_min              =  -1.4191522453614E+01
(PID.TID 0000.0001) %MON dynstat_eta_mean             =  -2.5039610078245E+00
(PID.TID 0000.0001) %MON dynstat_eta_sd               =   4.9499130531441E+00
(PID.TID 0000.0001) %MON dynstat_eta_del2             =   2.0714307536524E-01
(PID.TID 0000.0001) %MON dynstat_uvel_max             =   1.8937949847482E-03
(PID.TID 0000.0001) %MON dynstat_uvel_min             =  -8.1366007675321E-03
(PID.TID 0000.0001) %MON dynstat_uvel_mean            =  -1.1752892503247E-07
(PID.TID 0000.0001) %MON dynstat_uvel_sd              =   2.6719201573866E-04
(PID.TID 0000.0001) %MON dynstat_uvel_del2            =   4.5604918871130E-07
(PID.TID 0000.0001) %MON dynstat_vvel_max             =   6.7630545024766E-03
(PID.TID 0000.0001) %MON dynstat_vvel_min             =  -3.4604405732814E-03
(PID.TID 0000.0001) %MON dynstat_vvel_mean            =   1.4970555413414E-05
(PID.TID 0000.0001) %MON dynstat_vvel_sd              =   1.9295047673989E-04
(PID.TID 0000.0001) %MON dynstat_vvel_del2            =   4.2109277717980E-07
(PID.TID 0000.0001) %MON dynstat_wvel_max             =   2.8447586845895E-04
(PID.TID 0000.0001) %MON dynstat_wvel_min             =  -3.0532939397210E-04
(PID.TID 0000.0001) %MON dynstat_wvel_mean            =   6.6227954319711E-09
(PID.TID 0000.0001) %MON dynstat_wvel_sd              =   1.6672630132699E-05
(PID.TID 0000.0001) %MON dynstat_wvel_del2            =   6.5600052355558E-08
(PID.TID 0000.0001) %MON dynstat_theta_max            =   1.2000000000000E+00
(PID.TID 0000.0001) %MON dynstat_theta_min            =  -1.0000000000000E+00
(PID.TID 0000.0001) %MON dynstat_theta_mean           =   5.6896074003613E-01
(PID.TID 0000.0001) %MON dynstat_theta_sd             =   8.6850808981592E-01
(PID.TID 0000.0001) %MON dynstat_theta_del2           =   1.3461765285262E-06
(PID.TID 0000.0001) %MON dynstat_salt_max             =   3.4700000000000E+01
(PID.TID 0000.0001) %MON dynstat_salt_min             =   3.4000000000000E+01
(PID.TID 0000.0001) %MON dynstat_salt_mean            =   3.4499198449745E+01
(PID.TID 0000.0001) %MON dynstat_salt_sd              =   2.7633843730407E-01
(PID.TID 0000.0001) %MON dynstat_salt_del2            =   5.1132819969041E-07
(PID.TID 0000.0001) %MON advcfl_uvel_max              =   8.1366007675321E-04
(PID.TID 0000.0001) %MON advcfl_vvel_max              =   6.7630545024766E-04
(PID.TID 0000.0001) %MON advcfl_wvel_max              =   1.5266469698605E-03
(PID.TID 0000.0001) %MON advcfl_W_hf_max              =   1.5266469698605E-03
(PID.TID 0000.0001) %MON pe_b_mean                    =  -8.2992349189590E-01
(PID.TID 0000.0001) %MON ke_max                       =   2.0023233192969E-05
(PID.TID 0000.0001) %MON ke_mean                      =   5.3713120099119E-08
(PID.TID 0000.0001) %MON ke_vol                       =   4.2725065489099E+12
(PID.TID 0000.0001) // =======================================================
(PID.TID 0000.0001) // End MONITOR dynamic field statistics
(PID.TID 0000.0001) // =======================================================
(PID.TID 0000.0001) // =======================================================
(PID.TID 0000.0001) // Begin OBCS MONITOR field statistics
(PID.TID 0000.0001) // =======================================================
(PID.TID 0000.0001) %MON obc_N_vVel_max               =   1.4735264590984E-05
(PID.TID 0000.0001) %MON obc_N_vVel_min               =   1.4735264590984E-05
(PID.TID 0000.0001) %MON obc_N_vVel_mean              =   1.4735264590984E-05
(PID.TID 0000.0001) %MON obc_N_vVel_sd                =  -9.7452215916404E-24
(PID.TID 0000.0001) %MON obc_N_vVel_Int               =   9.7252746300495E+02
(PID.TID 0000.0001) // =======================================================
(PID.TID 0000.0001) // End OBCS MONITOR field statistics
(PID.TID 0000.0001) // =======================================================
 cg2d: Sum(rhs),rhsMax =   4.50857307313679E+00  2.99905523651375E+02
(PID.TID 0000.0001)      cg2d_init_res =   5.82385857767000E-06
(PID.TID 0000.0001)      cg2d_iters(min,last) =      -1      78
(PID.TID 0000.0001)      cg2d_last_res =   8.07254990336625E-12
(PID.TID 0000.0001) // =======================================================
(PID.TID 0000.0001) // Begin MONITOR dynamic field statistics
(PID.TID 0000.0001) // =======================================================
(PID.TID 0000.0001) %MON time_tsnumber                =                   672
(PID.TID 0000.0001) %MON time_secondsf                =   6.7200000000000E+04
(PID.TID 0000.0001) %MON dynstat_eta_max              =   5.7981507026803E+00
(PID.TID 0000.0001) %MON dynstat_eta_min              =  -1.4191547086424E+01
(PID.TID 0000.0001) %MON dynstat_eta_mean             =  -2.5039740155918E+00
(PID.TID 0000.0001) %MON dynstat_eta_sd               =   4.9499174083669E+00
(PID.TID 0000.0001) %MON dynstat_eta_del2             =   2.0714308763939E-01
(PID.TID 0000.0001) %MON dynstat_uvel_max             =   1.8968501881691E-03
(PID.TID 0000.0001) %MON dynstat_uvel_min             =  -8.1594699387049E-03
(PID.TID 0000.0001) %MON dynstat_uvel_mean            =  -1.1753505713215E-07
(PID.TID 0000.0001) %MON dynstat_uvel_sd              =   2.6770320470359E-04
(PID.TID 0000.0001) %MON dynstat_uvel_del2            =   4.5689461312997E-07
(PID.TID 0000.0001) %MON dynstat_vvel_max             =   6.7781401308871E-03
(PID.TID 0000.0001) %MON dynstat_vvel_min             =  -3.4691598123491E-03
(PID.TID 0000.0001) %MON dynstat_vvel_mean            =   1.4969842818622E-05
(PID.TID 0000.0001) %MON dynstat_vvel_sd              =   1.9316230836591E-04
(PID.TID 0000.0001) %MON dynstat_vvel_del2            =   4.2105842889418E-07
(PID.TID 0000.0001) %MON dynstat_wvel_max             =   2.8550209297631E-04
(PID.TID 0000.0001) %MON dynstat_wvel_min             =  -3.0624344617074E-04
(PID.TID 0000.0001) %MON dynstat_wvel_mean            =   6.6217872695938E-09
(PID.TID 0000.0001) %MON dynstat_wvel_sd              =   1.6468349804969E-05
(PID.TID 0000.0001) %MON dynstat_wvel_del2            =   6.3865051010053E-08
(PID.TID 0000.0001) %MON dynstat_theta_max            =   1.2000000000000E+00
(PID.TID 0000.0001) %MON dynstat_theta_min            =  -1.0000000000000E+00
(PID.TID 0000.0001) %MON dynstat_theta_mean           =   5.6896033774210E-01
(PID.TID 0000.0001) %MON dynstat_theta_sd             =   8.6850787235520E-01
(PID.TID 0000.0001) %MON dynstat_theta_del2           =   1.3485378991004E-06
(PID.TID 0000.0001) %MON dynstat_salt_max             =   3.4700000000000E+01
(PID.TID 0000.0001) %MON dynstat_salt_min             =   3.4000000000000E+01
(PID.TID 0000.0001) %MON dynstat_salt_mean            =   3.4499198289133E+01
(PID.TID 0000.0001) %MON dynstat_salt_sd              =   2.7633835528852E-01
(PID.TID 0000.0001) %MON dynstat_salt_del2            =   5.1226734228487E-07
(PID.TID 0000.0001) %MON advcfl_uvel_max              =   8.1594699387049E-04
(PID.TID 0000.0001) %MON advcfl_vvel_max              =   6.7781401308871E-04
(PID.TID 0000.0001) %MON advcfl_wvel_max              =   1.5312172308537E-03
(PID.TID 0000.0001) %MON advcfl_W_hf_max              =   1.5312172308537E-03
(PID.TID 0000.0001) %MON pe_b_mean                    =  -8.2992716384086E-01
(PID.TID 0000.0001) %MON ke_max                       =   2.0134538630833E-05
(PID.TID 0000.0001) %MON ke_mean                      =   5.3888009064553E-08
(PID.TID 0000.0001) %MON ke_vol                       =   4.2725064716135E+12
(PID.TID 0000.0001) // =======================================================
(PID.TID 0000.0001) // End MONITOR dynamic field statistics
(PID.TID 0000.0001) // =======================================================
(PID.TID 0000.0001) // =======================================================
(PID.TID 0000.0001) // Begin OBCS MONITOR field statistics
(PID.TID 0000.0001) // =======================================================
(PID.TID 0000.0001) %MON obc_N_vVel_max               =   1.4734649376547E-05
(PID.TID 0000.0001) %MON obc_N_vVel_min               =   1.4734649376547E-05
(PID.TID 0000.0001) %MON obc_N_vVel_mean              =   1.4734649376547E-05
(PID.TID 0000.0001) %MON obc_N_vVel_sd                =   2.8307794304939E-12
(PID.TID 0000.0001) %MON obc_N_vVel_Int               =   9.7248685885209E+02
(PID.TID 0000.0001) // =======================================================
(PID.TID 0000.0001) // End OBCS MONITOR field statistics
(PID.TID 0000.0001) // =======================================================
 cg2d: Sum(rhs),rhsMax =   4.50859535048311E+00  2.99905599137691E+02
(PID.TID 0000.0001)      cg2d_init_res =   5.81497954906308E-06
(PID.TID 0000.0001)      cg2d_iters(min,last) =      -1      78
(PID.TID 0000.0001)      cg2d_last_res =   8.08643169313767E-12
(PID.TID 0000.0001) // =======================================================
(PID.TID 0000.0001) // Begin MONITOR dynamic field statistics
(PID.TID 0000.0001) // =======================================================
(PID.TID 0000.0001) %MON time_tsnumber                =                   673
(PID.TID 0000.0001) %MON time_secondsf                =   6.7300000000000E+04
(PID.TID 0000.0001) %MON dynstat_eta_max              =   5.7981393698034E+00
(PID.TID 0000.0001) %MON dynstat_eta_min              =  -1.4191571717171E+01
(PID.TID 0000.0001) %MON dynstat_eta_mean             =  -2.5039870182519E+00
(PID.TID 0000.0001) %MON dynstat_eta_sd               =   4.9499217622850E+00
(PID.TID 0000.0001) %MON dynstat_eta_del2             =   2.0714309993859E-01
(PID.TID 0000.0001) %MON dynstat_uvel_max             =   1.8999030500493E-03
(PID.TID 0000.0001) %MON dynstat_uvel_min             =  -8.1823915361721E-03
(PID.TID 0000.0001) %MON dynstat_uvel_mean            =  -1.1753904617018E-07
(PID.TID 0000.0001) %MON dynstat_uvel_sd              =   2.6821704827529E-04
(PID.TID 0000.0001) %MON dynstat_uvel_del2            =   4.5774201578348E-07
(PID.TID 0000.0001) %MON dynstat_vvel_max             =   6.7932469335839E-03
(PID.TID 0000.0001) %MON dynstat_vvel_min             =  -3.4778852353670E-03
(PID.TID 0000.0001) %MON dynstat_vvel_mean            =   1.4969143967071E-05
(PID.TID 0000.0001) %MON dynstat_vvel_sd              =   1.9341337260068E-04
(PID.TID 0000.0001) %MON dynstat_vvel_del2            =   4.2144194870781E-07
(PID.TID 0000.0001) %MON dynstat_wvel_max             =   2.8653082203081E-04
(PID.TID 0000.0001) %MON dynstat_wvel_min             =  -3.0716013239396E-04
(PID.TID 0000.0001) %MON dynstat_wvel_mean            =   6.6209863351453E-09
(PID.TID 0000.0001) %MON dynstat_wvel_sd              =   1.6379755359301E-05
(PID.TID 0000.0001) %MON dynstat_wvel_del2            =   6.2914780682662E-08
(PID.TID 0000.0001) %MON dynstat_theta_max            =   1.2000000000000E+00
(PID.TID 0000.0001) %MON dynstat_theta_min            =  -1.0000000000000E+00
(PID.TID 0000.0001) %MON dynstat_theta_mean           =   5.6895993483054E-01
(PID.TID 0000.0001) %MON dynstat_theta_sd             =   8.6850765466282E-01
(PID.TID 0000.0001) %MON dynstat_theta_del2           =   1.3503765156560E-06
(PID.TID 0000.0001) %MON dynstat_salt_max             =   3.4700000000000E+01
(PID.TID 0000.0001) %MON dynstat_salt_min             =   3.4000000000000E+01
(PID.TID 0000.0001) %MON dynstat_salt_mean            =   3.4499198128281E+01
(PID.TID 0000.0001) %MON dynstat_salt_sd              =   2.7633827317387E-01
(PID.TID 0000.0001) %MON dynstat_salt_del2            =   5.1306777179725E-07
(PID.TID 0000.0001) %MON advcfl_uvel_max              =   8.1823915361721E-04
(PID.TID 0000.0001) %MON advcfl_vvel_max              =   6.7932469335839E-04
(PID.TID 0000.0001) %MON advcfl_wvel_max              =   1.5358006619698E-03
(PID.TID 0000.0001) %MON advcfl_W_hf_max              =   1.5358006619698E-03
(PID.TID 0000.0001) %MON pe_b_mean                    =  -8.2993083402388E-01
(PID.TID 0000.0001) %MON ke_max                       =   2.0246417967590E-05
(PID.TID 0000.0001) %MON ke_mean                      =   5.4071483817674E-08
(PID.TID 0000.0001) %MON ke_vol                       =   4.2725063943474E+12
(PID.TID 0000.0001) // =======================================================
(PID.TID 0000.0001) // End MONITOR dynamic field statistics
(PID.TID 0000.0001) // =======================================================
(PID.TID 0000.0001) // =======================================================
(PID.TID 0000.0001) // Begin OBCS MONITOR field statistics
(PID.TID 0000.0001) // =======================================================
(PID.TID 0000.0001) %MON obc_N_vVel_max               =   1.4734030522955E-05
(PID.TID 0000.0001) %MON obc_N_vVel_min               =   1.4734030522954E-05
(PID.TID 0000.0001) %MON obc_N_vVel_mean              =   1.4734030522954E-05
(PID.TID 0000.0001) %MON obc_N_vVel_sd                =   5.2271224979325E-12
(PID.TID 0000.0001) %MON obc_N_vVel_Int               =   9.7244601451497E+02
(PID.TID 0000.0001) // =======================================================
(PID.TID 0000.0001) // End OBCS MONITOR field statistics
(PID.TID 0000.0001) // =======================================================
 cg2d: Sum(rhs),rhsMax =   4.50861761852514E+00  2.99905674630320E+02
(PID.TID 0000.0001)      cg2d_init_res =   5.81334907317120E-06
(PID.TID 0000.0001)      cg2d_iters(min,last) =      -1      78
(PID.TID 0000.0001)      cg2d_last_res =   8.09494287241475E-12
(PID.TID 0000.0001) // =======================================================
(PID.TID 0000.0001) // Begin MONITOR dynamic field statistics
(PID.TID 0000.0001) // =======================================================
(PID.TID 0000.0001) %MON time_tsnumber                =                   674
(PID.TID 0000.0001) %MON time_secondsf                =   6.7400000000000E+04
(PID.TID 0000.0001) %MON dynstat_eta_max              =   5.7981280601129E+00
(PID.TID 0000.0001) %MON dynstat_eta_min              =  -1.4191596345985E+01
(PID.TID 0000.0001) %MON dynstat_eta_mean             =  -2.5040000158036E+00
(PID.TID 0000.0001) %MON dynstat_eta_sd               =   4.9499261149194E+00
(PID.TID 0000.0001) %MON dynstat_eta_del2             =   2.0714311226304E-01
(PID.TID 0000.0001) %MON dynstat_uvel_max             =   1.9029535932518E-03
(PID.TID 0000.0001) %MON dynstat_uvel_min             =  -8.2053656436178E-03
(PID.TID 0000.0001) %MON dynstat_uvel_mean            =  -1.1754031107510E-07
(PID.TID 0000.0001) %MON dynstat_uvel_sd              =   2.6873357881886E-04
(PID.TID 0000.0001) %MON dynstat_uvel_del2            =   4.5859153202073E-07
(PID.TID 0000.0001) %MON dynstat_vvel_max             =   6.8083749632377E-03
(PID.TID 0000.0001) %MON dynstat_vvel_min             =  -3.4866168575594E-03
(PID.TID 0000.0001) %MON dynstat_vvel_mean            =   1.4968483405486E-05
(PID.TID 0000.0001) %MON dynstat_vvel_sd              =   1.9370470388715E-04
(PID.TID 0000.0001) %MON dynstat_vvel_del2            =   4.2225210513326E-07
(PID.TID 0000.0001) %MON dynstat_wvel_max             =   2.8756206217301E-04
(PID.TID 0000.0001) %MON dynstat_wvel_min             =  -3.0807914579025E-04
(PID.TID 0000.0001) %MON dynstat_wvel_mean            =   6.6204209580584E-09
(PID.TID 0000.0001) %MON dynstat_wvel_sd              =   1.6411675905656E-05
(PID.TID 0000.0001) %MON dynstat_wvel_del2            =   6.2837045433356E-08
(PID.TID 0000.0001) %MON dynstat_theta_max            =   1.2000000000000E+00
(PID.TID 0000.0001) %MON dynstat_theta_min            =  -1.0000000000000E+00
(PID.TID 0000.0001) %MON dynstat_theta_mean           =   5.6895953133150E-01
(PID.TID 0000.0001) %MON dynstat_theta_sd             =   8.6850743670704E-01
(PID.TID 0000.0001) %MON dynstat_theta_del2           =   1.3516816816974E-06
(PID.TID 0000.0001) %MON dynstat_salt_max             =   3.4700000000000E+01
(PID.TID 0000.0001) %MON dynstat_salt_min             =   3.4000000000000E+01
(PID.TID 0000.0001) %MON dynstat_salt_mean            =   3.4499197967198E+01
(PID.TID 0000.0001) %MON dynstat_salt_sd              =   2.7633819094988E-01
(PID.TID 0000.0001) %MON dynstat_salt_del2            =   5.1372670524332E-07
(PID.TID 0000.0001) %MON advcfl_uvel_max              =   8.2053656436178E-04
(PID.TID 0000.0001) %MON advcfl_vvel_max              =   6.8083749632377E-04
(PID.TID 0000.0001) %MON advcfl_wvel_max              =   1.5403957289513E-03
(PID.TID 0000.0001) %MON advcfl_W_hf_max              =   1.5403957289513E-03
(PID.TID 0000.0001) %MON pe_b_mean                    =  -8.2993450244923E-01
(PID.TID 0000.0001) %MON ke_max                       =   2.0358873733888E-05
(PID.TID 0000.0001) %MON ke_mean                      =   5.4263787165266E-08
(PID.TID 0000.0001) %MON ke_vol                       =   4.2725063171116E+12
(PID.TID 0000.0001) // =======================================================
(PID.TID 0000.0001) // End MONITOR dynamic field statistics
(PID.TID 0000.0001) // =======================================================
(PID.TID 0000.0001) // =======================================================
(PID.TID 0000.0001) // Begin OBCS MONITOR field statistics
(PID.TID 0000.0001) // =======================================================
(PID.TID 0000.0001) %MON obc_N_vVel_max               =   1.4733429180470E-05
(PID.TID 0000.0001) %MON obc_N_vVel_min               =   1.4733429180470E-05
(PID.TID 0000.0001) %MON obc_N_vVel_mean              =   1.4733429180470E-05
(PID.TID 0000.0001) %MON obc_N_vVel_sd                =   2.9514819711374E-12
(PID.TID 0000.0001) %MON obc_N_vVel_Int               =   9.7240632591101E+02
(PID.TID 0000.0001) // =======================================================
(PID.TID 0000.0001) // End OBCS MONITOR field statistics
(PID.TID 0000.0001) // =======================================================
 cg2d: Sum(rhs),rhsMax =   4.50863987726301E+00  2.99905750131759E+02
(PID.TID 0000.0001)      cg2d_init_res =   5.81904656467683E-06
(PID.TID 0000.0001)      cg2d_iters(min,last) =      -1      78
(PID.TID 0000.0001)      cg2d_last_res =   8.09844208206674E-12
(PID.TID 0000.0001) // =======================================================
(PID.TID 0000.0001) // Begin MONITOR dynamic field statistics
(PID.TID 0000.0001) // =======================================================
(PID.TID 0000.0001) %MON time_tsnumber                =                   675
(PID.TID 0000.0001) %MON time_secondsf                =   6.7500000000000E+04
(PID.TID 0000.0001) %MON dynstat_eta_max              =   5.7981167734689E+00
(PID.TID 0000.0001) %MON dynstat_eta_min              =  -1.4191620973044E+01
(PID.TID 0000.0001) %MON dynstat_eta_mean             =  -2.5040130082676E+00
(PID.TID 0000.0001) %MON dynstat_eta_sd               =   4.9499304662962E+00
(PID.TID 0000.0001) %MON dynstat_eta_del2             =   2.0714312461293E-01
(PID.TID 0000.0001) %MON dynstat_uvel_max             =   1.9060018394321E-03
(PID.TID 0000.0001) %MON dynstat_uvel_min             =  -8.2283923441198E-03
(PID.TID 0000.0001) %MON dynstat_uvel_mean            =  -1.1753874899193E-07
(PID.TID 0000.0001) %MON dynstat_uvel_sd              =   2.6925282838536E-04
(PID.TID 0000.0001) %MON dynstat_uvel_del2            =   4.5944332798506E-07
(PID.TID 0000.0001) %MON dynstat_vvel_max             =   6.8235242721899E-03
(PID.TID 0000.0001) %MON dynstat_vvel_min             =  -3.4953546949241E-03
(PID.TID 0000.0001) %MON dynstat_vvel_mean            =   1.4967883923755E-05
(PID.TID 0000.0001) %MON dynstat_vvel_sd              =   1.9403439686921E-04
(PID.TID 0000.0001) %MON dynstat_vvel_del2            =   4.2346415814642E-07
(PID.TID 0000.0001) %MON dynstat_wvel_max             =   2.8859581995763E-04
(PID.TID 0000.0001) %MON dynstat_wvel_min             =  -3.0900049578273E-04
(PID.TID 0000.0001) %MON dynstat_wvel_mean            =   6.6201113842530E-09
(PID.TID 0000.0001) %MON dynstat_wvel_sd              =   1.6557290700006E-05
(PID.TID 0000.0001) %MON dynstat_wvel_del2            =   6.3619856401382E-08
(PID.TID 0000.0001) %MON dynstat_theta_max            =   1.2000000000000E+00
(PID.TID 0000.0001) %MON dynstat_theta_min            =  -1.0000000000000E+00
(PID.TID 0000.0001) %MON dynstat_theta_mean           =   5.6895912727587E-01
(PID.TID 0000.0001) %MON dynstat_theta_sd             =   8.6850721843946E-01
(PID.TID 0000.0001) %MON dynstat_theta_del2           =   1.3524781756696E-06
(PID.TID 0000.0001) %MON dynstat_salt_max             =   3.4700000000000E+01
(PID.TID 0000.0001) %MON dynstat_salt_min             =   3.4000000000000E+01
(PID.TID 0000.0001) %MON dynstat_salt_mean            =   3.4499197805894E+01
(PID.TID 0000.0001) %MON dynstat_salt_sd              =   2.7633810860101E-01
(PID.TID 0000.0001) %MON dynstat_salt_del2            =   5.1425089629083E-07
(PID.TID 0000.0001) %MON advcfl_uvel_max              =   8.2283923441198E-04
(PID.TID 0000.0001) %MON advcfl_vvel_max              =   6.8235242721899E-04
(PID.TID 0000.0001) %MON advcfl_wvel_max              =   1.5450024789137E-03
(PID.TID 0000.0001) %MON advcfl_W_hf_max              =   1.5450024789137E-03
(PID.TID 0000.0001) %MON pe_b_mean                    =  -8.2993816912673E-01
(PID.TID 0000.0001) %MON ke_max                       =   2.0471908463691E-05
(PID.TID 0000.0001) %MON ke_mean                      =   5.4464597502318E-08
(PID.TID 0000.0001) %MON ke_vol                       =   4.2725062399061E+12
(PID.TID 0000.0001) // =======================================================
(PID.TID 0000.0001) // End MONITOR dynamic field statistics
(PID.TID 0000.0001) // =======================================================
(PID.TID 0000.0001) // =======================================================
(PID.TID 0000.0001) // Begin OBCS MONITOR field statistics
(PID.TID 0000.0001) // =======================================================
(PID.TID 0000.0001) %MON obc_N_vVel_max               =   1.4732865477319E-05
(PID.TID 0000.0001) %MON obc_N_vVel_min               =   1.4732865477319E-05
(PID.TID 0000.0001) %MON obc_N_vVel_mean              =   1.4732865477319E-05
(PID.TID 0000.0001) %MON obc_N_vVel_sd                =   8.0388733884609E-13
(PID.TID 0000.0001) %MON obc_N_vVel_Int               =   9.7236912150305E+02
(PID.TID 0000.0001) // =======================================================
(PID.TID 0000.0001) // End OBCS MONITOR field statistics
(PID.TID 0000.0001) // =======================================================
 cg2d: Sum(rhs),rhsMax =   4.50866212673524E+00  2.99905825644222E+02
(PID.TID 0000.0001)      cg2d_init_res =   5.83157124927583E-06
(PID.TID 0000.0001)      cg2d_iters(min,last) =      -1      78
(PID.TID 0000.0001)      cg2d_last_res =   8.09823061101362E-12
(PID.TID 0000.0001) // =======================================================
(PID.TID 0000.0001) // Begin MONITOR dynamic field statistics
(PID.TID 0000.0001) // =======================================================
(PID.TID 0000.0001) %MON time_tsnumber                =                   676
(PID.TID 0000.0001) %MON time_secondsf                =   6.7600000000000E+04
(PID.TID 0000.0001) %MON dynstat_eta_max              =   5.7981055096912E+00
(PID.TID 0000.0001) %MON dynstat_eta_min              =  -1.4191645598557E+01
(PID.TID 0000.0001) %MON dynstat_eta_mean             =  -2.5040259956840E+00
(PID.TID 0000.0001) %MON dynstat_eta_sd               =   4.9499348164480E+00
(PID.TID 0000.0001) %MON dynstat_eta_del2             =   2.0714313698854E-01
(PID.TID 0000.0001) %MON dynstat_uvel_max             =   1.9090478093386E-03
(PID.TID 0000.0001) %MON dynstat_uvel_min             =  -8.2514717200910E-03
(PID.TID 0000.0001) %MON dynstat_uvel_mean            =  -1.1753470121080E-07
(PID.TID 0000.0001) %MON dynstat_uvel_sd              =   2.6977482825715E-04
(PID.TID 0000.0001) %MON dynstat_uvel_del2            =   4.6029759136903E-07
(PID.TID 0000.0001) %MON dynstat_vvel_max             =   6.8386949122292E-03
(PID.TID 0000.0001) %MON dynstat_vvel_min             =  -3.5040987642709E-03
(PID.TID 0000.0001) %MON dynstat_vvel_mean            =   1.4967365805852E-05
(PID.TID 0000.0001) %MON dynstat_vvel_sd              =   1.9439781194744E-04
(PID.TID 0000.0001) %MON dynstat_vvel_del2            =   4.2502236053068E-07
(PID.TID 0000.0001) %MON dynstat_wvel_max             =   2.8963210194074E-04
(PID.TID 0000.0001) %MON dynstat_wvel_min             =  -3.0992419177254E-04
(PID.TID 0000.0001) %MON dynstat_wvel_mean            =   6.6200691718262E-09
(PID.TID 0000.0001) %MON dynstat_wvel_sd              =   1.6799256939237E-05
(PID.TID 0000.0001) %MON dynstat_wvel_del2            =   6.5153880490466E-08
(PID.TID 0000.0001) %MON dynstat_theta_max            =   1.2000000000000E+00
(PID.TID 0000.0001) %MON dynstat_theta_min            =  -1.0000000000000E+00
(PID.TID 0000.0001) %MON dynstat_theta_mean           =   5.6895872269467E-01
(PID.TID 0000.0001) %MON dynstat_theta_sd             =   8.6850699980076E-01
(PID.TID 0000.0001) %MON dynstat_theta_del2           =   1.3528247470978E-06
(PID.TID 0000.0001) %MON dynstat_salt_max             =   3.4700000000000E+01
(PID.TID 0000.0001) %MON dynstat_salt_min             =   3.4000000000000E+01
(PID.TID 0000.0001) %MON dynstat_salt_mean            =   3.4499197644379E+01
(PID.TID 0000.0001) %MON dynstat_salt_sd              =   2.7633802610845E-01
(PID.TID 0000.0001) %MON dynstat_salt_del2            =   5.1465613877604E-07
(PID.TID 0000.0001) %MON advcfl_uvel_max              =   8.2514717200910E-04
(PID.TID 0000.0001) %MON advcfl_vvel_max              =   6.8386949122292E-04
(PID.TID 0000.0001) %MON advcfl_wvel_max              =   1.5496209588627E-03
(PID.TID 0000.0001) %MON advcfl_W_hf_max              =   1.5496209588627E-03
(PID.TID 0000.0001) %MON pe_b_mean                    =  -8.2994183407086E-01
(PID.TID 0000.0001) %MON ke_max                       =   2.0585524694877E-05
(PID.TID 0000.0001) %MON ke_mean                      =   5.4673063633926E-08
(PID.TID 0000.0001) %MON ke_vol                       =   4.2725061627309E+12
(PID.TID 0000.0001) // =======================================================
(PID.TID 0000.0001) // End MONITOR dynamic field statistics
(PID.TID 0000.0001) // =======================================================
(PID.TID 0000.0001) // =======================================================
(PID.TID 0000.0001) // Begin OBCS MONITOR field statistics
(PID.TID 0000.0001) // =======================================================
(PID.TID 0000.0001) %MON obc_N_vVel_max               =   1.4732357873011E-05
(PID.TID 0000.0001) %MON obc_N_vVel_min               =   1.4732357873010E-05
(PID.TID 0000.0001) %MON obc_N_vVel_mean              =   1.4732357873010E-05
(PID.TID 0000.0001) %MON obc_N_vVel_sd                =   4.7775532469702E-12
(PID.TID 0000.0001) %MON obc_N_vVel_Int               =   9.7233561961868E+02
(PID.TID 0000.0001) // =======================================================
(PID.TID 0000.0001) // End OBCS MONITOR field statistics
(PID.TID 0000.0001) // =======================================================
 cg2d: Sum(rhs),rhsMax =   4.50868436701750E+00  2.99905901169630E+02
(PID.TID 0000.0001)      cg2d_init_res =   5.84988561369282E-06
(PID.TID 0000.0001)      cg2d_iters(min,last) =      -1      78
(PID.TID 0000.0001)      cg2d_last_res =   8.09586213374939E-12
(PID.TID 0000.0001) // =======================================================
(PID.TID 0000.0001) // Begin MONITOR dynamic field statistics
(PID.TID 0000.0001) // =======================================================
(PID.TID 0000.0001) %MON time_tsnumber                =                   677
(PID.TID 0000.0001) %MON time_secondsf                =   6.7700000000000E+04
(PID.TID 0000.0001) %MON dynstat_eta_max              =   5.7980942685521E+00
(PID.TID 0000.0001) %MON dynstat_eta_min              =  -1.4191670222767E+01
(PID.TID 0000.0001) %MON dynstat_eta_mean             =  -2.5040389781107E+00
(PID.TID 0000.0001) %MON dynstat_eta_sd               =   4.9499391654091E+00
(PID.TID 0000.0001) %MON dynstat_eta_del2             =   2.0714314939001E-01
(PID.TID 0000.0001) %MON dynstat_uvel_max             =   1.9120915230957E-03
(PID.TID 0000.0001) %MON dynstat_uvel_min             =  -8.2746038534083E-03
(PID.TID 0000.0001) %MON dynstat_uvel_mean            =  -1.1752882123322E-07
(PID.TID 0000.0001) %MON dynstat_uvel_sd              =   2.7029960821315E-04
(PID.TID 0000.0001) %MON dynstat_uvel_del2            =   4.6115451815719E-07
(PID.TID 0000.0001) %MON dynstat_vvel_max             =   6.8538869344374E-03
(PID.TID 0000.0001) %MON dynstat_vvel_min             =  -3.5128490832950E-03
(PID.TID 0000.0001) %MON dynstat_vvel_mean            =   1.4966946228100E-05
(PID.TID 0000.0001) %MON dynstat_vvel_sd              =   1.9478798954656E-04
(PID.TID 0000.0001) %MON dynstat_vvel_del2            =   4.2684508463380E-07
(PID.TID 0000.0001) %MON dynstat_wvel_max             =   2.9067091468618E-04
(PID.TID 0000.0001) %MON dynstat_wvel_min             =  -3.1085024305439E-04
(PID.TID 0000.0001) %MON dynstat_wvel_mean            =   6.6202969585974E-09
(PID.TID 0000.0001) %MON dynstat_wvel_sd              =   1.7112341222951E-05
(PID.TID 0000.0001) %MON dynstat_wvel_del2            =   6.7256632043180E-08
(PID.TID 0000.0001) %MON dynstat_theta_max            =   1.2000000000000E+00
(PID.TID 0000.0001) %MON dynstat_theta_min            =  -1.0000000000000E+00
(PID.TID 0000.0001) %MON dynstat_theta_mean           =   5.6895831761853E-01
(PID.TID 0000.0001) %MON dynstat_theta_sd             =   8.6850678073280E-01
(PID.TID 0000.0001) %MON dynstat_theta_del2           =   1.3528093992825E-06
(PID.TID 0000.0001) %MON dynstat_salt_max             =   3.4700000000000E+01
(PID.TID 0000.0001) %MON dynstat_salt_min             =   3.4000000000000E+01
(PID.TID 0000.0001) %MON dynstat_salt_mean            =   3.4499197482662E+01
(PID.TID 0000.0001) %MON dynstat_salt_sd              =   2.7633794345350E-01
(PID.TID 0000.0001) %MON dynstat_salt_del2            =   5.1496601728041E-07
(PID.TID 0000.0001) %MON advcfl_uvel_max              =   8.2746038534083E-04
(PID.TID 0000.0001) %MON advcfl_vvel_max              =   6.8538869344374E-04
(PID.TID 0000.0001) %MON advcfl_wvel_max              =   1.5542512152720E-03
(PID.TID 0000.0001) %MON advcfl_W_hf_max              =   1.5542512152720E-03
(PID.TID 0000.0001) %MON pe_b_mean                    =  -8.2994549730015E-01
(PID.TID 0000.0001) %MON ke_max                       =   2.0699724969010E-05
(PID.TID 0000.0001) %MON ke_mean                      =   5.4887879142096E-08
(PID.TID 0000.0001) %MON ke_vol                       =   4.2725060855856E+12
(PID.TID 0000.0001) // =======================================================
(PID.TID 0000.0001) // End MONITOR dynamic field statistics
(PID.TID 0000.0001) // =======================================================
(PID.TID 0000.0001) // =======================================================
(PID.TID 0000.0001) // Begin OBCS MONITOR field statistics
(PID.TID 0000.0001) // =======================================================
(PID.TID 0000.0001) %MON obc_N_vVel_max               =   1.4731922599478E-05
(PID.TID 0000.0001) %MON obc_N_vVel_min               =   1.4731922599477E-05
(PID.TID 0000.0001) %MON obc_N_vVel_mean              =   1.4731922599478E-05
(PID.TID 0000.0001) %MON obc_N_vVel_sd                =  -3.1536260853584E-24
(PID.TID 0000.0001) %MON obc_N_vVel_Int               =   9.7230689156552E+02
(PID.TID 0000.0001) // =======================================================
(PID.TID 0000.0001) // End OBCS MONITOR field statistics
(PID.TID 0000.0001) // =======================================================
 cg2d: Sum(rhs),rhsMax =   4.50870659821780E+00  2.99905976709600E+02
(PID.TID 0000.0001)      cg2d_init_res =   5.87251764224319E-06
(PID.TID 0000.0001)      cg2d_iters(min,last) =      -1      78
(PID.TID 0000.0001)      cg2d_last_res =   8.09293984569425E-12
(PID.TID 0000.0001) // =======================================================
(PID.TID 0000.0001) // Begin MONITOR dynamic field statistics
(PID.TID 0000.0001) // =======================================================
(PID.TID 0000.0001) %MON time_tsnumber                =                   678
(PID.TID 0000.0001) %MON time_secondsf                =   6.7800000000000E+04
(PID.TID 0000.0001) %MON dynstat_eta_max              =   5.7980830497872E+00
(PID.TID 0000.0001) %MON dynstat_eta_min              =  -1.4191694845929E+01
(PID.TID 0000.0001) %MON dynstat_eta_mean             =  -2.5040519556213E+00
(PID.TID 0000.0001) %MON dynstat_eta_sd               =   4.9499435132145E+00
(PID.TID 0000.0001) %MON dynstat_eta_del2             =   2.0714316181745E-01
(PID.TID 0000.0001) %MON dynstat_uvel_max             =   1.9151330035951E-03
(PID.TID 0000.0001) %MON dynstat_uvel_min             =  -8.2977888249927E-03
(PID.TID 0000.0001) %MON dynstat_uvel_mean            =  -1.1752195231642E-07
(PID.TID 0000.0001) %MON dynstat_uvel_sd              =   2.7082719570604E-04
(PID.TID 0000.0001) %MON dynstat_uvel_del2            =   4.6201429838028E-07
(PID.TID 0000.0001) %MON dynstat_vvel_max             =   6.8691003886867E-03
(PID.TID 0000.0001) %MON dynstat_vvel_min             =  -3.5216056704783E-03
(PID.TID 0000.0001) %MON dynstat_vvel_mean            =   1.4966638795907E-05
(PID.TID 0000.0001) %MON dynstat_vvel_sd              =   1.9519623579029E-04
(PID.TID 0000.0001) %MON dynstat_vvel_del2            =   4.2883198263518E-07
(PID.TID 0000.0001) %MON dynstat_wvel_max             =   2.9171226476310E-04
(PID.TID 0000.0001) %MON dynstat_wvel_min             =  -3.1177865887212E-04
(PID.TID 0000.0001) %MON dynstat_wvel_mean            =   6.6207888364472E-09
(PID.TID 0000.0001) %MON dynstat_wvel_sd              =   1.7466780769857E-05
(PID.TID 0000.0001) %MON dynstat_wvel_del2            =   6.9706925799041E-08
(PID.TID 0000.0001) %MON dynstat_theta_max            =   1.2000000000000E+00
(PID.TID 0000.0001) %MON dynstat_theta_min            =  -1.0000000000000E+00
(PID.TID 0000.0001) %MON dynstat_theta_mean           =   5.6895791207711E-01
(PID.TID 0000.0001) %MON dynstat_theta_sd             =   8.6850656120959E-01
(PID.TID 0000.0001) %MON dynstat_theta_del2           =   1.3525429617976E-06
(PID.TID 0000.0001) %MON dynstat_salt_max             =   3.4700000000000E+01
(PID.TID 0000.0001) %MON dynstat_salt_min             =   3.4000000000000E+01
(PID.TID 0000.0001) %MON dynstat_salt_mean            =   3.4499197320752E+01
(PID.TID 0000.0001) %MON dynstat_salt_sd              =   2.7633786062783E-01
(PID.TID 0000.0001) %MON dynstat_salt_del2            =   5.1521017878813E-07
(PID.TID 0000.0001) %MON advcfl_uvel_max              =   8.2977888249927E-04
(PID.TID 0000.0001) %MON advcfl_vvel_max              =   6.8691003886867E-04
(PID.TID 0000.0001) %MON advcfl_wvel_max              =   1.5588932943606E-03
(PID.TID 0000.0001) %MON advcfl_W_hf_max              =   1.5588932943606E-03
(PID.TID 0000.0001) %MON pe_b_mean                    =  -8.2994915883645E-01
(PID.TID 0000.0001) %MON ke_max                       =   2.0814511829750E-05
(PID.TID 0000.0001) %MON ke_mean                      =   5.5107390229768E-08
(PID.TID 0000.0001) %MON ke_vol                       =   4.2725060084700E+12
(PID.TID 0000.0001) // =======================================================
(PID.TID 0000.0001) // End MONITOR dynamic field statistics
(PID.TID 0000.0001) // =======================================================
(PID.TID 0000.0001) // =======================================================
(PID.TID 0000.0001) // Begin OBCS MONITOR field statistics
(PID.TID 0000.0001) // =======================================================
(PID.TID 0000.0001) %MON obc_N_vVel_max               =   1.4731573145487E-05
(PID.TID 0000.0001) %MON obc_N_vVel_min               =   1.4731573145486E-05
(PID.TID 0000.0001) %MON obc_N_vVel_mean              =   1.4731573145486E-05
(PID.TID 0000.0001) %MON obc_N_vVel_sd                =   5.0943882575684E-12
(PID.TID 0000.0001) %MON obc_N_vVel_Int               =   9.7228382760208E+02
(PID.TID 0000.0001) // =======================================================
(PID.TID 0000.0001) // End OBCS MONITOR field statistics
(PID.TID 0000.0001) // =======================================================
 cg2d: Sum(rhs),rhsMax =   4.50872882047143E+00  2.99906052265402E+02
(PID.TID 0000.0001)      cg2d_init_res =   5.89768583210639E-06
(PID.TID 0000.0001)      cg2d_iters(min,last) =      -1      78
(PID.TID 0000.0001)      cg2d_last_res =   8.09069356334882E-12
(PID.TID 0000.0001) // =======================================================
(PID.TID 0000.0001) // Begin MONITOR dynamic field statistics
(PID.TID 0000.0001) // =======================================================
(PID.TID 0000.0001) %MON time_tsnumber                =                   679
(PID.TID 0000.0001) %MON time_secondsf                =   6.7900000000000E+04
(PID.TID 0000.0001) %MON dynstat_eta_max              =   5.7980718531043E+00
(PID.TID 0000.0001) %MON dynstat_eta_min              =  -1.4191719468305E+01
(PID.TID 0000.0001) %MON dynstat_eta_mean             =  -2.5040649283015E+00
(PID.TID 0000.0001) %MON dynstat_eta_sd               =   4.9499478599028E+00
(PID.TID 0000.0001) %MON dynstat_eta_del2             =   2.0714317427107E-01
(PID.TID 0000.0001) %MON dynstat_uvel_max             =   1.9181722675325E-03
(PID.TID 0000.0001) %MON dynstat_uvel_min             =  -8.3223633579230E-03
(PID.TID 0000.0001) %MON dynstat_uvel_mean            =  -1.1751500751003E-07
(PID.TID 0000.0001) %MON dynstat_uvel_sd              =   2.7135761476788E-04
(PID.TID 0000.0001) %MON dynstat_uvel_del2            =   4.6287709986911E-07
(PID.TID 0000.0001) %MON dynstat_vvel_max             =   6.8843353236874E-03
(PID.TID 0000.0001) %MON dynstat_vvel_min             =  -3.5303685451353E-03
(PID.TID 0000.0001) %MON dynstat_vvel_mean            =   1.4966453250795E-05
(PID.TID 0000.0001) %MON dynstat_vvel_sd              =   1.9561282874942E-04
(PID.TID 0000.0001) %MON dynstat_vvel_del2            =   4.3087240878914E-07
(PID.TID 0000.0001) %MON dynstat_wvel_max             =   2.9275615875619E-04
(PID.TID 0000.0001) %MON dynstat_wvel_min             =  -3.1270944841414E-04
(PID.TID 0000.0001) %MON dynstat_wvel_mean            =   6.6215305458095E-09
(PID.TID 0000.0001) %MON dynstat_wvel_sd              =   1.7831584080165E-05
(PID.TID 0000.0001) %MON dynstat_wvel_del2            =   7.2276834373267E-08
(PID.TID 0000.0001) %MON dynstat_theta_max            =   1.2000000000000E+00
(PID.TID 0000.0001) %MON dynstat_theta_min            =  -1.0000000000000E+00
(PID.TID 0000.0001) %MON dynstat_theta_mean           =   5.6895750609858E-01
(PID.TID 0000.0001) %MON dynstat_theta_sd             =   8.6850634121916E-01
(PID.TID 0000.0001) %MON dynstat_theta_del2           =   1.3521497332689E-06
(PID.TID 0000.0001) %MON dynstat_salt_max             =   3.4700000000000E+01
(PID.TID 0000.0001) %MON dynstat_salt_min             =   3.4000000000000E+01
(PID.TID 0000.0001) %MON dynstat_salt_mean            =   3.4499197158659E+01
(PID.TID 0000.0001) %MON dynstat_salt_sd              =   2.7633777762747E-01
(PID.TID 0000.0001) %MON dynstat_salt_del2            =   5.1542179914126E-07
(PID.TID 0000.0001) %MON advcfl_uvel_max              =   8.3223633579230E-04
(PID.TID 0000.0001) %MON advcfl_vvel_max              =   6.8843353236874E-04
(PID.TID 0000.0001) %MON advcfl_wvel_max              =   1.5635472420707E-03
(PID.TID 0000.0001) %MON advcfl_W_hf_max              =   1.5635472420707E-03
(PID.TID 0000.0001) %MON pe_b_mean                    =  -8.2995281870396E-01
(PID.TID 0000.0001) %MON ke_max                       =   2.0929887825531E-05
(PID.TID 0000.0001) %MON ke_mean                      =   5.5329728302458E-08
(PID.TID 0000.0001) %MON ke_vol                       =   4.2725059313836E+12
(PID.TID 0000.0001) // =======================================================
(PID.TID 0000.0001) // End MONITOR dynamic field statistics
(PID.TID 0000.0001) // =======================================================
(PID.TID 0000.0001) // =======================================================
(PID.TID 0000.0001) // Begin OBCS MONITOR field statistics
(PID.TID 0000.0001) // =======================================================
(PID.TID 0000.0001) %MON obc_N_vVel_max               =   1.4731319889303E-05
(PID.TID 0000.0001) %MON obc_N_vVel_min               =   1.4731319889302E-05
(PID.TID 0000.0001) %MON obc_N_vVel_mean              =   1.4731319889302E-05
(PID.TID 0000.0001) %MON obc_N_vVel_sd                =   5.1699394138732E-12
(PID.TID 0000.0001) %MON obc_N_vVel_Int               =   9.7226711269396E+02
(PID.TID 0000.0001) // =======================================================
(PID.TID 0000.0001) // End OBCS MONITOR field statistics
(PID.TID 0000.0001) // =======================================================
 cg2d: Sum(rhs),rhsMax =   4.50875103393191E+00  2.99906127837994E+02
(PID.TID 0000.0001)      cg2d_init_res =   5.92344111568267E-06
(PID.TID 0000.0001)      cg2d_iters(min,last) =      -1      78
(PID.TID 0000.0001)      cg2d_last_res =   8.09012765922615E-12
(PID.TID 0000.0001) // =======================================================
(PID.TID 0000.0001) // Begin MONITOR dynamic field statistics
(PID.TID 0000.0001) // =======================================================
(PID.TID 0000.0001) %MON time_tsnumber                =                   680
(PID.TID 0000.0001) %MON time_secondsf                =   6.8000000000000E+04
(PID.TID 0000.0001) %MON dynstat_eta_max              =   5.7980606781875E+00
(PID.TID 0000.0001) %MON dynstat_eta_min              =  -1.4191744090158E+01
(PID.TID 0000.0001) %MON dynstat_eta_mean             =  -2.5040778962446E+00
(PID.TID 0000.0001) %MON dynstat_eta_sd               =   4.9499522055106E+00
(PID.TID 0000.0001) %MON dynstat_eta_del2             =   2.0714318675108E-01
(PID.TID 0000.0001) %MON dynstat_uvel_max             =   1.9212093372323E-03
(PID.TID 0000.0001) %MON dynstat_uvel_min             =  -8.3475247029590E-03
(PID.TID 0000.0001) %MON dynstat_uvel_mean            =  -1.1750884718603E-07
(PID.TID 0000.0001) %MON dynstat_uvel_sd              =   2.7189088508179E-04
(PID.TID 0000.0001) %MON dynstat_uvel_del2            =   4.6374305374626E-07
(PID.TID 0000.0001) %MON dynstat_vvel_max             =   6.8995917866541E-03
(PID.TID 0000.0001) %MON dynstat_vvel_min             =  -3.5391377272367E-03
(PID.TID 0000.0001) %MON dynstat_vvel_mean            =   1.4966395197959E-05
(PID.TID 0000.0001) %MON dynstat_vvel_sd              =   1.9602778708488E-04
(PID.TID 0000.0001) %MON dynstat_vvel_del2            =   4.3285429370952E-07
(PID.TID 0000.0001) %MON dynstat_wvel_max             =   2.9380260325651E-04
(PID.TID 0000.0001) %MON dynstat_wvel_min             =  -3.1364262079683E-04
(PID.TID 0000.0001) %MON dynstat_wvel_mean            =   6.6225003886528E-09
(PID.TID 0000.0001) %MON dynstat_wvel_sd              =   1.8177258964258E-05
(PID.TID 0000.0001) %MON dynstat_wvel_del2            =   7.4754378744337E-08
(PID.TID 0000.0001) %MON dynstat_theta_max            =   1.2000000000000E+00
(PID.TID 0000.0001) %MON dynstat_theta_min            =  -1.0000000000000E+00
(PID.TID 0000.0001) %MON dynstat_theta_mean           =   5.6895709970882E-01
(PID.TID 0000.0001) %MON dynstat_theta_sd             =   8.6850612075045E-01
(PID.TID 0000.0001) %MON dynstat_theta_del2           =   1.3517584300390E-06
(PID.TID 0000.0001) %MON dynstat_salt_max             =   3.4700000000000E+01
(PID.TID 0000.0001) %MON dynstat_salt_min             =   3.4000000000000E+01
(PID.TID 0000.0001) %MON dynstat_salt_mean            =   3.4499196996389E+01
(PID.TID 0000.0001) %MON dynstat_salt_sd              =   2.7633769444890E-01
(PID.TID 0000.0001) %MON dynstat_salt_del2            =   5.1563509679831E-07
(PID.TID 0000.0001) %MON advcfl_uvel_max              =   8.3475247029590E-04
(PID.TID 0000.0001) %MON advcfl_vvel_max              =   6.8995917866541E-04
(PID.TID 0000.0001) %MON advcfl_wvel_max              =   1.5682131039842E-03
(PID.TID 0000.0001) %MON advcfl_W_hf_max              =   1.5682131039842E-03
(PID.TID 0000.0001) %MON pe_b_mean                    =  -8.2995647692795E-01
(PID.TID 0000.0001) %MON ke_max                       =   2.1045855517102E-05
(PID.TID 0000.0001) %MON ke_mean                      =   5.5552957038620E-08
(PID.TID 0000.0001) %MON ke_vol                       =   4.2725058543259E+12
(PID.TID 0000.0001) // =======================================================
(PID.TID 0000.0001) // End MONITOR dynamic field statistics
(PID.TID 0000.0001) // =======================================================
(PID.TID 0000.0001) // =======================================================
(PID.TID 0000.0001) // Begin OBCS MONITOR field statistics
(PID.TID 0000.0001) // =======================================================
(PID.TID 0000.0001) %MON obc_N_vVel_max               =   1.4731169856023E-05
(PID.TID 0000.0001) %MON obc_N_vVel_min               =   1.4731169856023E-05
(PID.TID 0000.0001) %MON obc_N_vVel_mean              =   1.4731169856023E-05
(PID.TID 0000.0001) %MON obc_N_vVel_sd                =   3.0335431947893E-12
(PID.TID 0000.0001) %MON obc_N_vVel_Int               =   9.7225721049753E+02
(PID.TID 0000.0001) // =======================================================
(PID.TID 0000.0001) // End OBCS MONITOR field statistics
(PID.TID 0000.0001) // =======================================================
 cg2d: Sum(rhs),rhsMax =   4.50877323875962E+00  2.99906203428008E+02
(PID.TID 0000.0001)      cg2d_init_res =   5.94782196072843E-06
(PID.TID 0000.0001)      cg2d_iters(min,last) =      -1      78
(PID.TID 0000.0001)      cg2d_last_res =   8.09178706867181E-12
(PID.TID 0000.0001) // =======================================================
(PID.TID 0000.0001) // Begin MONITOR dynamic field statistics
(PID.TID 0000.0001) // =======================================================
(PID.TID 0000.0001) %MON time_tsnumber                =                   681
(PID.TID 0000.0001) %MON time_secondsf                =   6.8100000000000E+04
(PID.TID 0000.0001) %MON dynstat_eta_max              =   5.7980495247182E+00
(PID.TID 0000.0001) %MON dynstat_eta_min              =  -1.4191768711743E+01
(PID.TID 0000.0001) %MON dynstat_eta_mean             =  -2.5040908595448E+00
(PID.TID 0000.0001) %MON dynstat_eta_sd               =   4.9499565500714E+00
(PID.TID 0000.0001) %MON dynstat_eta_del2             =   2.0714319925758E-01
(PID.TID 0000.0001) %MON dynstat_uvel_max             =   1.9242442378351E-03
(PID.TID 0000.0001) %MON dynstat_uvel_min             =  -8.3727538047924E-03
(PID.TID 0000.0001) %MON dynstat_uvel_mean            =  -1.1750418555220E-07
(PID.TID 0000.0001) %MON dynstat_uvel_sd              =   2.7242702104675E-04
(PID.TID 0000.0001) %MON dynstat_uvel_del2            =   4.6461224034664E-07
(PID.TID 0000.0001) %MON dynstat_vvel_max             =   6.9148698232331E-03
(PID.TID 0000.0001) %MON dynstat_vvel_min             =  -3.5479132373384E-03
(PID.TID 0000.0001) %MON dynstat_vvel_mean            =   1.4966465983381E-05
(PID.TID 0000.0001) %MON dynstat_vvel_sd              =   1.9643163964863E-04
(PID.TID 0000.0001) %MON dynstat_vvel_del2            =   4.3467271389835E-07
(PID.TID 0000.0001) %MON dynstat_wvel_max             =   2.9485160488357E-04
(PID.TID 0000.0001) %MON dynstat_wvel_min             =  -3.1457818514745E-04
(PID.TID 0000.0001) %MON dynstat_wvel_mean            =   6.6236700946142E-09
(PID.TID 0000.0001) %MON dynstat_wvel_sd              =   1.8477793338297E-05
(PID.TID 0000.0001) %MON dynstat_wvel_del2            =   7.6956544315199E-08
(PID.TID 0000.0001) %MON dynstat_theta_max            =   1.2000000000000E+00
(PID.TID 0000.0001) %MON dynstat_theta_min            =  -1.0000000000000E+00
(PID.TID 0000.0001) %MON dynstat_theta_mean           =   5.6895669293069E-01
(PID.TID 0000.0001) %MON dynstat_theta_sd             =   8.6850589980077E-01
(PID.TID 0000.0001) %MON dynstat_theta_del2           =   1.3514928753463E-06
(PID.TID 0000.0001) %MON dynstat_salt_max             =   3.4700000000000E+01
(PID.TID 0000.0001) %MON dynstat_salt_min             =   3.4000000000000E+01
(PID.TID 0000.0001) %MON dynstat_salt_mean            =   3.4499196833951E+01
(PID.TID 0000.0001) %MON dynstat_salt_sd              =   2.7633761109104E-01
(PID.TID 0000.0001) %MON dynstat_salt_del2            =   5.1588292784572E-07
(PID.TID 0000.0001) %MON advcfl_uvel_max              =   8.3727538047924E-04
(PID.TID 0000.0001) %MON advcfl_vvel_max              =   6.9148698232331E-04
(PID.TID 0000.0001) %MON advcfl_wvel_max              =   1.5728909257372E-03
(PID.TID 0000.0001) %MON advcfl_W_hf_max              =   1.5728909257372E-03
(PID.TID 0000.0001) %MON pe_b_mean                    =  -8.2996013353286E-01
(PID.TID 0000.0001) %MON ke_max                       =   2.1162417466538E-05
(PID.TID 0000.0001) %MON ke_mean                      =   5.5775222425092E-08
(PID.TID 0000.0001) %MON ke_vol                       =   4.2725057772963E+12
(PID.TID 0000.0001) // =======================================================
(PID.TID 0000.0001) // End MONITOR dynamic field statistics
(PID.TID 0000.0001) // =======================================================
(PID.TID 0000.0001) // =======================================================
(PID.TID 0000.0001) // Begin OBCS MONITOR field statistics
(PID.TID 0000.0001) // =======================================================
(PID.TID 0000.0001) %MON obc_N_vVel_max               =   1.4731126584349E-05
(PID.TID 0000.0001) %MON obc_N_vVel_min               =   1.4731126584349E-05
(PID.TID 0000.0001) %MON obc_N_vVel_mean              =   1.4731126584349E-05
(PID.TID 0000.0001) %MON obc_N_vVel_sd                =   4.0162198576253E-12
(PID.TID 0000.0001) %MON obc_N_vVel_Int               =   9.7225435456704E+02
(PID.TID 0000.0001) // =======================================================
(PID.TID 0000.0001) // End OBCS MONITOR field statistics
(PID.TID 0000.0001) // =======================================================
 cg2d: Sum(rhs),rhsMax =   4.50879543511851E+00  2.99906279035776E+02
(PID.TID 0000.0001)      cg2d_init_res =   5.96900866760931E-06
(PID.TID 0000.0001)      cg2d_iters(min,last) =      -1      78
(PID.TID 0000.0001)      cg2d_last_res =   8.09591574411533E-12
(PID.TID 0000.0001) // =======================================================
(PID.TID 0000.0001) // Begin MONITOR dynamic field statistics
(PID.TID 0000.0001) // =======================================================
(PID.TID 0000.0001) %MON time_tsnumber                =                   682
(PID.TID 0000.0001) %MON time_secondsf                =   6.8200000000000E+04
(PID.TID 0000.0001) %MON dynstat_eta_max              =   5.7980383923693E+00
(PID.TID 0000.0001) %MON dynstat_eta_min              =  -1.4191793333296E+01
(PID.TID 0000.0001) %MON dynstat_eta_mean             =  -2.5041038182961E+00
(PID.TID 0000.0001) %MON dynstat_eta_sd               =   4.9499608936150E+00
(PID.TID 0000.0001) %MON dynstat_eta_del2             =   2.0714321179067E-01
(PID.TID 0000.0001) %MON dynstat_uvel_max             =   1.9272769952154E-03
(PID.TID 0000.0001) %MON dynstat_uvel_min             =  -8.3980507862371E-03
(PID.TID 0000.0001) %MON dynstat_uvel_mean            =  -1.1750151606624E-07
(PID.TID 0000.0001) %MON dynstat_uvel_sd              =   2.7296603106481E-04
(PID.TID 0000.0001) %MON dynstat_uvel_del2            =   4.6548467943499E-07
(PID.TID 0000.0001) %MON dynstat_vvel_max             =   6.9301694773296E-03
(PID.TID 0000.0001) %MON dynstat_vvel_min             =  -3.5566950967079E-03
(PID.TID 0000.0001) %MON dynstat_vvel_mean            =   1.4966662723003E-05
(PID.TID 0000.0001) %MON dynstat_vvel_sd              =   1.9681613742063E-04
(PID.TID 0000.0001) %MON dynstat_vvel_del2            =   4.3623753621802E-07
(PID.TID 0000.0001) %MON dynstat_wvel_max             =   2.9590317027002E-04
(PID.TID 0000.0001) %MON dynstat_wvel_min             =  -3.1551615050356E-04
(PID.TID 0000.0001) %MON dynstat_wvel_mean            =   6.6250052425412E-09
(PID.TID 0000.0001) %MON dynstat_wvel_sd              =   1.8711948374759E-05
(PID.TID 0000.0001) %MON dynstat_wvel_del2            =   7.8735298978506E-08
(PID.TID 0000.0001) %MON dynstat_theta_max            =   1.2000000000000E+00
(PID.TID 0000.0001) %MON dynstat_theta_min            =  -1.0000000000000E+00
(PID.TID 0000.0001) %MON dynstat_theta_mean           =   5.6895628578372E-01
(PID.TID 0000.0001) %MON dynstat_theta_sd             =   8.6850567837624E-01
(PID.TID 0000.0001) %MON dynstat_theta_del2           =   1.3514630173720E-06
(PID.TID 0000.0001) %MON dynstat_salt_max             =   3.4700000000000E+01
(PID.TID 0000.0001) %MON dynstat_salt_min             =   3.4000000000000E+01
(PID.TID 0000.0001) %MON dynstat_salt_mean            =   3.4499196671350E+01
(PID.TID 0000.0001) %MON dynstat_salt_sd              =   2.7633752755594E-01
(PID.TID 0000.0001) %MON dynstat_salt_del2            =   5.1619436845630E-07
(PID.TID 0000.0001) %MON advcfl_uvel_max              =   8.3980507862371E-04
(PID.TID 0000.0001) %MON advcfl_vvel_max              =   6.9301694773296E-04
(PID.TID 0000.0001) %MON advcfl_wvel_max              =   1.5775807525178E-03
(PID.TID 0000.0001) %MON advcfl_W_hf_max              =   1.5775807525178E-03
(PID.TID 0000.0001) %MON pe_b_mean                    =  -8.2996378854192E-01
(PID.TID 0000.0001) %MON ke_max                       =   2.1279576239362E-05
(PID.TID 0000.0001) %MON ke_mean                      =   5.5994894299044E-08
(PID.TID 0000.0001) %MON ke_vol                       =   4.2725057002943E+12
(PID.TID 0000.0001) // =======================================================
(PID.TID 0000.0001) // End MONITOR dynamic field statistics
(PID.TID 0000.0001) // =======================================================
(PID.TID 0000.0001) // =======================================================
(PID.TID 0000.0001) // Begin OBCS MONITOR field statistics
(PID.TID 0000.0001) // =======================================================
(PID.TID 0000.0001) %MON obc_N_vVel_max               =   1.4731190124018E-05
(PID.TID 0000.0001) %MON obc_N_vVel_min               =   1.4731190124017E-05
(PID.TID 0000.0001) %MON obc_N_vVel_mean              =   1.4731190124018E-05
(PID.TID 0000.0001) %MON obc_N_vVel_sd                =  -2.1196503196671E-23
(PID.TID 0000.0001) %MON obc_N_vVel_Int               =   9.7225854818519E+02
(PID.TID 0000.0001) // =======================================================
(PID.TID 0000.0001) // End OBCS MONITOR field statistics
(PID.TID 0000.0001) // =======================================================
 cg2d: Sum(rhs),rhsMax =   4.50881762317156E+00  2.99906354661347E+02
(PID.TID 0000.0001)      cg2d_init_res =   5.98545628366908E-06
(PID.TID 0000.0001)      cg2d_iters(min,last) =      -1      78
(PID.TID 0000.0001)      cg2d_last_res =   8.10224489768082E-12
(PID.TID 0000.0001) // =======================================================
(PID.TID 0000.0001) // Begin MONITOR dynamic field statistics
(PID.TID 0000.0001) // =======================================================
(PID.TID 0000.0001) %MON time_tsnumber                =                   683
(PID.TID 0000.0001) %MON time_secondsf                =   6.8300000000000E+04
(PID.TID 0000.0001) %MON dynstat_eta_max              =   5.7980272808363E+00
(PID.TID 0000.0001) %MON dynstat_eta_min              =  -1.4191817955044E+01
(PID.TID 0000.0001) %MON dynstat_eta_mean             =  -2.5041167725893E+00
(PID.TID 0000.0001) %MON dynstat_eta_sd               =   4.9499652361649E+00
(PID.TID 0000.0001) %MON dynstat_eta_del2             =   2.0714322435039E-01
(PID.TID 0000.0001) %MON dynstat_uvel_max             =   1.9303076367190E-03
(PID.TID 0000.0001) %MON dynstat_uvel_min             =  -8.4234157687604E-03
(PID.TID 0000.0001) %MON dynstat_uvel_mean            =  -1.1750105635880E-07
(PID.TID 0000.0001) %MON dynstat_uvel_sd              =   2.7350791699923E-04
(PID.TID 0000.0001) %MON dynstat_uvel_del2            =   4.6636032139410E-07
(PID.TID 0000.0001) %MON dynstat_vvel_max             =   6.9454907911846E-03
(PID.TID 0000.0001) %MON dynstat_vvel_min             =  -3.5654833271321E-03
(PID.TID 0000.0001) %MON dynstat_vvel_mean            =   1.4966978500337E-05
(PID.TID 0000.0001) %MON dynstat_vvel_sd              =   1.9717485575505E-04
(PID.TID 0000.0001) %MON dynstat_vvel_del2            =   4.3747967038234E-07
(PID.TID 0000.0001) %MON dynstat_wvel_max             =   2.9695730605579E-04
(PID.TID 0000.0001) %MON dynstat_wvel_min             =  -3.1645652591800E-04
(PID.TID 0000.0001) %MON dynstat_wvel_mean            =   6.6264670533371E-09
(PID.TID 0000.0001) %MON dynstat_wvel_sd              =   1.8864022376678E-05
(PID.TID 0000.0001) %MON dynstat_wvel_del2            =   7.9979586192827E-08
(PID.TID 0000.0001) %MON dynstat_theta_max            =   1.2000000000000E+00
(PID.TID 0000.0001) %MON dynstat_theta_min            =  -1.0000000000000E+00
(PID.TID 0000.0001) %MON dynstat_theta_mean           =   5.6895587828393E-01
(PID.TID 0000.0001) %MON dynstat_theta_sd             =   8.6850545648295E-01
(PID.TID 0000.0001) %MON dynstat_theta_del2           =   1.3517568101709E-06
(PID.TID 0000.0001) %MON dynstat_salt_max             =   3.4700000000000E+01
(PID.TID 0000.0001) %MON dynstat_salt_min             =   3.4000000000000E+01
(PID.TID 0000.0001) %MON dynstat_salt_mean            =   3.4499196508590E+01
(PID.TID 0000.0001) %MON dynstat_salt_sd              =   2.7633744384523E-01
(PID.TID 0000.0001) %MON dynstat_salt_del2            =   5.1659264409898E-07
(PID.TID 0000.0001) %MON advcfl_uvel_max              =   8.4234157687604E-04
(PID.TID 0000.0001) %MON advcfl_vvel_max              =   6.9454907911846E-04
(PID.TID 0000.0001) %MON advcfl_wvel_max              =   1.5822826295900E-03
(PID.TID 0000.0001) %MON advcfl_W_hf_max              =   1.5822826295900E-03
(PID.TID 0000.0001) %MON pe_b_mean                    =  -8.2996744197659E-01
(PID.TID 0000.0001) %MON ke_max                       =   2.1397334404788E-05
(PID.TID 0000.0001) %MON ke_mean                      =   5.6210688600633E-08
(PID.TID 0000.0001) %MON ke_vol                       =   4.2725056233193E+12
(PID.TID 0000.0001) // =======================================================
(PID.TID 0000.0001) // End MONITOR dynamic field statistics
(PID.TID 0000.0001) // =======================================================
(PID.TID 0000.0001) // =======================================================
(PID.TID 0000.0001) // Begin OBCS MONITOR field statistics
(PID.TID 0000.0001) // =======================================================
(PID.TID 0000.0001) %MON obc_N_vVel_max               =   1.4731357084941E-05
(PID.TID 0000.0001) %MON obc_N_vVel_min               =   1.4731357084941E-05
(PID.TID 0000.0001) %MON obc_N_vVel_mean              =   1.4731357084941E-05
(PID.TID 0000.0001) %MON obc_N_vVel_sd                =   3.3027934128618E-12
(PID.TID 0000.0001) %MON obc_N_vVel_Int               =   9.7226956760612E+02
(PID.TID 0000.0001) // =======================================================
(PID.TID 0000.0001) // End OBCS MONITOR field statistics
(PID.TID 0000.0001) // =======================================================
 cg2d: Sum(rhs),rhsMax =   4.50883980307237E+00  2.99906430304534E+02
(PID.TID 0000.0001)      cg2d_init_res =   5.99599392036137E-06
(PID.TID 0000.0001)      cg2d_iters(min,last) =      -1      78
(PID.TID 0000.0001)      cg2d_last_res =   8.11033390111846E-12
(PID.TID 0000.0001) // =======================================================
(PID.TID 0000.0001) // Begin MONITOR dynamic field statistics
(PID.TID 0000.0001) // =======================================================
(PID.TID 0000.0001) %MON time_tsnumber                =                   684
(PID.TID 0000.0001) %MON time_secondsf                =   6.8400000000000E+04
(PID.TID 0000.0001) %MON dynstat_eta_max              =   5.7980161898371E+00
(PID.TID 0000.0001) %MON dynstat_eta_min              =  -1.4191842577177E+01
(PID.TID 0000.0001) %MON dynstat_eta_mean             =  -2.5041297225082E+00
(PID.TID 0000.0001) %MON dynstat_eta_sd               =   4.9499695777422E+00
(PID.TID 0000.0001) %MON dynstat_eta_del2             =   2.0714323693688E-01
(PID.TID 0000.0001) %MON dynstat_uvel_max             =   1.9333361920020E-03
(PID.TID 0000.0001) %MON dynstat_uvel_min             =  -8.4488488724688E-03
(PID.TID 0000.0001) %MON dynstat_uvel_mean            =  -1.1750273511628E-07
(PID.TID 0000.0001) %MON dynstat_uvel_sd              =   2.7405267401011E-04
(PID.TID 0000.0001) %MON dynstat_uvel_del2            =   4.6723904539286E-07
(PID.TID 0000.0001) %MON dynstat_vvel_max             =   6.9608338054046E-03
(PID.TID 0000.0001) %MON dynstat_vvel_min             =  -3.5742779508423E-03
(PID.TID 0000.0001) %MON dynstat_vvel_mean            =   1.4967402669775E-05
(PID.TID 0000.0001) %MON dynstat_vvel_sd              =   1.9750364517209E-04
(PID.TID 0000.0001) %MON dynstat_vvel_del2            =   4.3835561972007E-07
(PID.TID 0000.0001) %MON dynstat_wvel_max             =   2.9801401891555E-04
(PID.TID 0000.0001) %MON dynstat_wvel_min             =  -3.1739932034642E-04
(PID.TID 0000.0001) %MON dynstat_wvel_mean            =   6.6280130837265E-09
(PID.TID 0000.0001) %MON dynstat_wvel_sd              =   1.8924248384282E-05
(PID.TID 0000.0001) %MON dynstat_wvel_del2            =   8.0615434656248E-08
(PID.TID 0000.0001) %MON dynstat_theta_max            =   1.2000000000000E+00
(PID.TID 0000.0001) %MON dynstat_theta_min            =  -1.0000000000000E+00
(PID.TID 0000.0001) %MON dynstat_theta_mean           =   5.6895547044340E-01
(PID.TID 0000.0001) %MON dynstat_theta_sd             =   8.6850523412821E-01
(PID.TID 0000.0001) %MON dynstat_theta_del2           =   1.3524342336471E-06
(PID.TID 0000.0001) %MON dynstat_salt_max             =   3.4700000000000E+01
(PID.TID 0000.0001) %MON dynstat_salt_min             =   3.4000000000000E+01
(PID.TID 0000.0001) %MON dynstat_salt_mean            =   3.4499196345677E+01
(PID.TID 0000.0001) %MON dynstat_salt_sd              =   2.7633735996124E-01
(PID.TID 0000.0001) %MON dynstat_salt_del2            =   5.1709347153618E-07
(PID.TID 0000.0001) %MON advcfl_uvel_max              =   8.4488488724688E-04
(PID.TID 0000.0001) %MON advcfl_vvel_max              =   6.9608338054046E-04
(PID.TID 0000.0001) %MON advcfl_wvel_max              =   1.5869966017321E-03
(PID.TID 0000.0001) %MON advcfl_W_hf_max              =   1.5869966017321E-03
(PID.TID 0000.0001) %MON pe_b_mean                    =  -8.2997109385563E-01
(PID.TID 0000.0001) %MON ke_max                       =   2.1515694534746E-05
(PID.TID 0000.0001) %MON ke_mean                      =   5.6421761239927E-08
(PID.TID 0000.0001) %MON ke_vol                       =   4.2725055463708E+12
(PID.TID 0000.0001) // =======================================================
(PID.TID 0000.0001) // End MONITOR dynamic field statistics
(PID.TID 0000.0001) // =======================================================
(PID.TID 0000.0001) // =======================================================
(PID.TID 0000.0001) // Begin OBCS MONITOR field statistics
(PID.TID 0000.0001) // =======================================================
(PID.TID 0000.0001) %MON obc_N_vVel_max               =   1.4731620824071E-05
(PID.TID 0000.0001) %MON obc_N_vVel_min               =   1.4731620824071E-05
(PID.TID 0000.0001) %MON obc_N_vVel_mean              =   1.4731620824071E-05
(PID.TID 0000.0001) %MON obc_N_vVel_sd                =   1.3160202914594E-12
(PID.TID 0000.0001) %MON obc_N_vVel_Int               =   9.7228697438868E+02
(PID.TID 0000.0001) // =======================================================
(PID.TID 0000.0001) // End OBCS MONITOR field statistics
(PID.TID 0000.0001) // =======================================================
 cg2d: Sum(rhs),rhsMax =   4.50886197495509E+00  2.99906505964920E+02
(PID.TID 0000.0001)      cg2d_init_res =   5.99989817540203E-06
(PID.TID 0000.0001)      cg2d_iters(min,last) =      -1      78
(PID.TID 0000.0001)      cg2d_last_res =   8.12002741467657E-12
(PID.TID 0000.0001) // =======================================================
(PID.TID 0000.0001) // Begin MONITOR dynamic field statistics
(PID.TID 0000.0001) // =======================================================
(PID.TID 0000.0001) %MON time_tsnumber                =                   685
(PID.TID 0000.0001) %MON time_secondsf                =   6.8500000000000E+04
(PID.TID 0000.0001) %MON dynstat_eta_max              =   5.7980051191216E+00
(PID.TID 0000.0001) %MON dynstat_eta_min              =  -1.4191867199866E+01
(PID.TID 0000.0001) %MON dynstat_eta_mean             =  -2.5041426681238E+00
(PID.TID 0000.0001) %MON dynstat_eta_sd               =   4.9499739183597E+00
(PID.TID 0000.0001) %MON dynstat_eta_del2             =   2.0714324955022E-01
(PID.TID 0000.0001) %MON dynstat_uvel_max             =   1.9363626924913E-03
(PID.TID 0000.0001) %MON dynstat_uvel_min             =  -8.4743502159874E-03
(PID.TID 0000.0001) %MON dynstat_uvel_mean            =  -1.1750621333134E-07
(PID.TID 0000.0001) %MON dynstat_uvel_sd              =   2.7460029069318E-04
(PID.TID 0000.0001) %MON dynstat_uvel_del2            =   4.6812066103552E-07
(PID.TID 0000.0001) %MON dynstat_vvel_max             =   6.9761985590411E-03
(PID.TID 0000.0001) %MON dynstat_vvel_min             =  -3.5830789903954E-03
(PID.TID 0000.0001) %MON dynstat_vvel_mean            =   1.4967921290570E-05
(PID.TID 0000.0001) %MON dynstat_vvel_sd              =   1.9780090118040E-04
(PID.TID 0000.0001) %MON dynstat_vvel_del2            =   4.3885014631467E-07
(PID.TID 0000.0001) %MON dynstat_wvel_max             =   2.9907331554907E-04
(PID.TID 0000.0001) %MON dynstat_wvel_min             =  -3.1834454284736E-04
(PID.TID 0000.0001) %MON dynstat_wvel_mean            =   6.6295993351975E-09
(PID.TID 0000.0001) %MON dynstat_wvel_sd              =   1.8888950061174E-05
(PID.TID 0000.0001) %MON dynstat_wvel_del2            =   8.0605427894845E-08
(PID.TID 0000.0001) %MON dynstat_theta_max            =   1.2000000000000E+00
(PID.TID 0000.0001) %MON dynstat_theta_min            =  -1.0000000000000E+00
(PID.TID 0000.0001) %MON dynstat_theta_mean           =   5.6895506226975E-01
(PID.TID 0000.0001) %MON dynstat_theta_sd             =   8.6850501131847E-01
(PID.TID 0000.0001) %MON dynstat_theta_del2           =   1.3535231872302E-06
(PID.TID 0000.0001) %MON dynstat_salt_max             =   3.4700000000000E+01
(PID.TID 0000.0001) %MON dynstat_salt_min             =   3.4000000000000E+01
(PID.TID 0000.0001) %MON dynstat_salt_mean            =   3.4499196182611E+01
(PID.TID 0000.0001) %MON dynstat_salt_sd              =   2.7633727590589E-01
(PID.TID 0000.0001) %MON dynstat_salt_del2            =   5.1770412163784E-07
(PID.TID 0000.0001) %MON advcfl_uvel_max              =   8.4743502159874E-04
(PID.TID 0000.0001) %MON advcfl_vvel_max              =   6.9761985590411E-04
(PID.TID 0000.0001) %MON advcfl_wvel_max              =   1.5917227142368E-03
(PID.TID 0000.0001) %MON advcfl_W_hf_max              =   1.5917227142368E-03
(PID.TID 0000.0001) %MON pe_b_mean                    =  -8.2997474419357E-01
(PID.TID 0000.0001) %MON ke_max                       =   2.1634659205005E-05
(PID.TID 0000.0001) %MON ke_mean                      =   5.6627766677298E-08
(PID.TID 0000.0001) %MON ke_vol                       =   4.2725054694483E+12
(PID.TID 0000.0001) // =======================================================
(PID.TID 0000.0001) // End MONITOR dynamic field statistics
(PID.TID 0000.0001) // =======================================================
(PID.TID 0000.0001) // =======================================================
(PID.TID 0000.0001) // Begin OBCS MONITOR field statistics
(PID.TID 0000.0001) // =======================================================
(PID.TID 0000.0001) %MON obc_N_vVel_max               =   1.4731971693936E-05
(PID.TID 0000.0001) %MON obc_N_vVel_min               =   1.4731971693936E-05
(PID.TID 0000.0001) %MON obc_N_vVel_mean              =   1.4731971693936E-05
(PID.TID 0000.0001) %MON obc_N_vVel_sd                =  -1.4139618595828E-23
(PID.TID 0000.0001) %MON obc_N_vVel_Int               =   9.7231013179979E+02
(PID.TID 0000.0001) // =======================================================
(PID.TID 0000.0001) // End OBCS MONITOR field statistics
(PID.TID 0000.0001) // =======================================================
 cg2d: Sum(rhs),rhsMax =   4.50888413893232E+00  2.99906581641927E+02
(PID.TID 0000.0001)      cg2d_init_res =   5.99693882387406E-06
(PID.TID 0000.0001)      cg2d_iters(min,last) =      -1      78
(PID.TID 0000.0001)      cg2d_last_res =   8.13142611302920E-12
(PID.TID 0000.0001) // =======================================================
(PID.TID 0000.0001) // Begin MONITOR dynamic field statistics
(PID.TID 0000.0001) // =======================================================
(PID.TID 0000.0001) %MON time_tsnumber                =                   686
(PID.TID 0000.0001) %MON time_secondsf                =   6.8600000000000E+04
(PID.TID 0000.0001) %MON dynstat_eta_max              =   5.7979940684840E+00
(PID.TID 0000.0001) %MON dynstat_eta_min              =  -1.4191891823249E+01
(PID.TID 0000.0001) %MON dynstat_eta_mean             =  -2.5041556094939E+00
(PID.TID 0000.0001) %MON dynstat_eta_sd               =   4.9499782580223E+00
(PID.TID 0000.0001) %MON dynstat_eta_del2             =   2.0714326219040E-01
(PID.TID 0000.0001) %MON dynstat_uvel_max             =   1.9393871712827E-03
(PID.TID 0000.0001) %MON dynstat_uvel_min             =  -8.4999199166624E-03
(PID.TID 0000.0001) %MON dynstat_uvel_mean            =  -1.1751093458559E-07
(PID.TID 0000.0001) %MON dynstat_uvel_sd              =   2.7515074959522E-04
(PID.TID 0000.0001) %MON dynstat_uvel_del2            =   4.6900491510577E-07
(PID.TID 0000.0001) %MON dynstat_vvel_max             =   6.9919729484655E-03
(PID.TID 0000.0001) %MON dynstat_vvel_min             =  -3.5918864688114E-03
(PID.TID 0000.0001) %MON dynstat_vvel_mean            =   1.4968517638348E-05
(PID.TID 0000.0001) %MON dynstat_vvel_sd              =   1.9806763717810E-04
(PID.TID 0000.0001) %MON dynstat_vvel_del2            =   4.3897696810560E-07
(PID.TID 0000.0001) %MON dynstat_wvel_max             =   3.0013520265750E-04
(PID.TID 0000.0001) %MON dynstat_wvel_min             =  -3.1929220235338E-04
(PID.TID 0000.0001) %MON dynstat_wvel_mean            =   6.6311812443111E-09
(PID.TID 0000.0001) %MON dynstat_wvel_sd              =   1.8760530784189E-05
(PID.TID 0000.0001) %MON dynstat_wvel_del2            =   7.9948142337148E-08
(PID.TID 0000.0001) %MON dynstat_theta_max            =   1.2000000000000E+00
(PID.TID 0000.0001) %MON dynstat_theta_min            =  -1.0000000000000E+00
(PID.TID 0000.0001) %MON dynstat_theta_mean           =   5.6895465376620E-01
(PID.TID 0000.0001) %MON dynstat_theta_sd             =   8.6850478806162E-01
(PID.TID 0000.0001) %MON dynstat_theta_del2           =   1.3550185026211E-06
(PID.TID 0000.0001) %MON dynstat_salt_max             =   3.4700000000000E+01
(PID.TID 0000.0001) %MON dynstat_salt_min             =   3.4000000000000E+01
(PID.TID 0000.0001) %MON dynstat_salt_mean            =   3.4499196019394E+01
(PID.TID 0000.0001) %MON dynstat_salt_sd              =   2.7633719168136E-01
(PID.TID 0000.0001) %MON dynstat_salt_del2            =   5.1842309753291E-07
(PID.TID 0000.0001) %MON advcfl_uvel_max              =   8.4999199166624E-04
(PID.TID 0000.0001) %MON advcfl_vvel_max              =   6.9919729484655E-04
(PID.TID 0000.0001) %MON advcfl_wvel_max              =   1.5964610117669E-03
(PID.TID 0000.0001) %MON advcfl_W_hf_max              =   1.5964610117669E-03
(PID.TID 0000.0001) %MON pe_b_mean                    =  -8.2997839300050E-01
(PID.TID 0000.0001) %MON ke_max                       =   2.1754230994563E-05
(PID.TID 0000.0001) %MON ke_mean                      =   5.6828877146934E-08
(PID.TID 0000.0001) %MON ke_vol                       =   4.2725053925513E+12
(PID.TID 0000.0001) // =======================================================
(PID.TID 0000.0001) // End MONITOR dynamic field statistics
(PID.TID 0000.0001) // =======================================================
(PID.TID 0000.0001) // =======================================================
(PID.TID 0000.0001) // Begin OBCS MONITOR field statistics
(PID.TID 0000.0001) // =======================================================
(PID.TID 0000.0001) %MON obc_N_vVel_max               =   1.4732397420335E-05
(PID.TID 0000.0001) %MON obc_N_vVel_min               =   1.4732397420335E-05
(PID.TID 0000.0001) %MON obc_N_vVel_mean              =   1.4732397420335E-05
(PID.TID 0000.0001) %MON obc_N_vVel_sd                =   4.1554055502495E-12
(PID.TID 0000.0001) %MON obc_N_vVel_Int               =   9.7233822974209E+02
(PID.TID 0000.0001) // =======================================================
(PID.TID 0000.0001) // End OBCS MONITOR field statistics
(PID.TID 0000.0001) // =======================================================
 cg2d: Sum(rhs),rhsMax =   4.50890629509088E+00  2.99906657334855E+02
(PID.TID 0000.0001)      cg2d_init_res =   5.98740207806141E-06
(PID.TID 0000.0001)      cg2d_iters(min,last) =      -1      78
(PID.TID 0000.0001)      cg2d_last_res =   8.14488165050884E-12
(PID.TID 0000.0001) // =======================================================
(PID.TID 0000.0001) // Begin MONITOR dynamic field statistics
(PID.TID 0000.0001) // =======================================================
(PID.TID 0000.0001) %MON time_tsnumber                =                   687
(PID.TID 0000.0001) %MON time_secondsf                =   6.8700000000000E+04
(PID.TID 0000.0001) %MON dynstat_eta_max              =   5.7979830377685E+00
(PID.TID 0000.0001) %MON dynstat_eta_min              =  -1.4191916447439E+01
(PID.TID 0000.0001) %MON dynstat_eta_mean             =  -2.5041685466607E+00
(PID.TID 0000.0001) %MON dynstat_eta_sd               =   4.9499825967314E+00
(PID.TID 0000.0001) %MON dynstat_eta_del2             =   2.0714327485759E-01
(PID.TID 0000.0001) %MON dynstat_uvel_max             =   1.9424096625222E-03
(PID.TID 0000.0001) %MON dynstat_uvel_min             =  -8.5255580906782E-03
(PID.TID 0000.0001) %MON dynstat_uvel_mean            =  -1.1751619863459E-07
(PID.TID 0000.0001) %MON dynstat_uvel_sd              =   2.7570402803450E-04
(PID.TID 0000.0001) %MON dynstat_uvel_del2            =   4.6989150168895E-07
(PID.TID 0000.0001) %MON dynstat_vvel_max             =   7.0128833500109E-03
(PID.TID 0000.0001) %MON dynstat_vvel_min             =  -3.6007004094172E-03
(PID.TID 0000.0001) %MON dynstat_vvel_mean            =   1.4969172812512E-05
(PID.TID 0000.0001) %MON dynstat_vvel_sd              =   1.9830735860241E-04
(PID.TID 0000.0001) %MON dynstat_vvel_del2            =   4.3877748518263E-07
(PID.TID 0000.0001) %MON dynstat_wvel_max             =   3.0119968697069E-04
(PID.TID 0000.0001) %MON dynstat_wvel_min             =  -3.2024230784178E-04
(PID.TID 0000.0001) %MON dynstat_wvel_mean            =   6.6327157182574E-09
(PID.TID 0000.0001) %MON dynstat_wvel_sd              =   1.8547324666979E-05
(PID.TID 0000.0001) %MON dynstat_wvel_del2            =   7.8677788617743E-08
(PID.TID 0000.0001) %MON dynstat_theta_max            =   1.2000000000000E+00
(PID.TID 0000.0001) %MON dynstat_theta_min            =  -1.0000000000000E+00
(PID.TID 0000.0001) %MON dynstat_theta_mean           =   5.6895424493146E-01
(PID.TID 0000.0001) %MON dynstat_theta_sd             =   8.6850456436576E-01
(PID.TID 0000.0001) %MON dynstat_theta_del2           =   1.3568834642169E-06
(PID.TID 0000.0001) %MON dynstat_salt_max             =   3.4700000000000E+01
(PID.TID 0000.0001) %MON dynstat_salt_min             =   3.4000000000000E+01
(PID.TID 0000.0001) %MON dynstat_salt_mean            =   3.4499195856024E+01
(PID.TID 0000.0001) %MON dynstat_salt_sd              =   2.7633710729065E-01
(PID.TID 0000.0001) %MON dynstat_salt_del2            =   5.1924061162542E-07
(PID.TID 0000.0001) %MON advcfl_uvel_max              =   8.5255580906782E-04
(PID.TID 0000.0001) %MON advcfl_vvel_max              =   7.0128833500109E-04
(PID.TID 0000.0001) %MON advcfl_wvel_max              =   1.6012115392089E-03
(PID.TID 0000.0001) %MON advcfl_W_hf_max              =   1.6012115392089E-03
(PID.TID 0000.0001) %MON pe_b_mean                    =  -8.2998204028209E-01
(PID.TID 0000.0001) %MON ke_max                       =   2.1874412486810E-05
(PID.TID 0000.0001) %MON ke_mean                      =   5.7025761505002E-08
(PID.TID 0000.0001) %MON ke_vol                       =   4.2725053156796E+12
(PID.TID 0000.0001) // =======================================================
(PID.TID 0000.0001) // End MONITOR dynamic field statistics
(PID.TID 0000.0001) // =======================================================
(PID.TID 0000.0001) // =======================================================
(PID.TID 0000.0001) // Begin OBCS MONITOR field statistics
(PID.TID 0000.0001) // =======================================================
(PID.TID 0000.0001) %MON obc_N_vVel_max               =   1.4732883538866E-05
(PID.TID 0000.0001) %MON obc_N_vVel_min               =   1.4732883538866E-05
(PID.TID 0000.0001) %MON obc_N_vVel_mean              =   1.4732883538866E-05
(PID.TID 0000.0001) %MON obc_N_vVel_sd                =   3.0589999476146E-12
(PID.TID 0000.0001) %MON obc_N_vVel_Int               =   9.7237031356518E+02
(PID.TID 0000.0001) // =======================================================
(PID.TID 0000.0001) // End OBCS MONITOR field statistics
(PID.TID 0000.0001) // =======================================================
 cg2d: Sum(rhs),rhsMax =   4.50892844348860E+00  2.99906733042906E+02
(PID.TID 0000.0001)      cg2d_init_res =   5.97205749695902E-06
(PID.TID 0000.0001)      cg2d_iters(min,last) =      -1      78
(PID.TID 0000.0001)      cg2d_last_res =   8.16082628933996E-12
(PID.TID 0000.0001) // =======================================================
(PID.TID 0000.0001) // Begin MONITOR dynamic field statistics
(PID.TID 0000.0001) // =======================================================
(PID.TID 0000.0001) %MON time_tsnumber                =                   688
(PID.TID 0000.0001) %MON time_secondsf                =   6.8800000000000E+04
(PID.TID 0000.0001) %MON dynstat_eta_max              =   5.7979720268671E+00
(PID.TID 0000.0001) %MON dynstat_eta_min              =  -1.4191941072505E+01
(PID.TID 0000.0001) %MON dynstat_eta_mean             =  -2.5041814796498E+00
(PID.TID 0000.0001) %MON dynstat_eta_sd               =   4.9499869344818E+00
(PID.TID 0000.0001) %MON dynstat_eta_del2             =   2.0714328755197E-01
(PID.TID 0000.0001) %MON dynstat_uvel_max             =   1.9454302009048E-03
(PID.TID 0000.0001) %MON dynstat_uvel_min             =  -8.5512648531996E-03
(PID.TID 0000.0001) %MON dynstat_uvel_mean            =  -1.1752122619955E-07
(PID.TID 0000.0001) %MON dynstat_uvel_sd              =   2.7626009925799E-04
(PID.TID 0000.0001) %MON dynstat_uvel_del2            =   4.7078007693958E-07
(PID.TID 0000.0001) %MON dynstat_vvel_max             =   7.0338395091478E-03
(PID.TID 0000.0001) %MON dynstat_vvel_min             =  -3.6095208358322E-03
(PID.TID 0000.0001) %MON dynstat_vvel_mean            =   1.4969866387670E-05
(PID.TID 0000.0001) %MON dynstat_vvel_sd              =   1.9852575059608E-04
(PID.TID 0000.0001) %MON dynstat_vvel_del2            =   4.3831760959007E-07
(PID.TID 0000.0001) %MON dynstat_wvel_max             =   3.0226677522927E-04
(PID.TID 0000.0001) %MON dynstat_wvel_min             =  -3.2119486827753E-04
(PID.TID 0000.0001) %MON dynstat_wvel_mean            =   6.6341620965968E-09
(PID.TID 0000.0001) %MON dynstat_wvel_sd              =   1.8263296574505E-05
(PID.TID 0000.0001) %MON dynstat_wvel_del2            =   7.6864059147674E-08
(PID.TID 0000.0001) %MON dynstat_theta_max            =   1.2000000000000E+00
(PID.TID 0000.0001) %MON dynstat_theta_min            =  -1.0000000000000E+00
(PID.TID 0000.0001) %MON dynstat_theta_mean           =   5.6895383576013E-01
(PID.TID 0000.0001) %MON dynstat_theta_sd             =   8.6850434023925E-01
(PID.TID 0000.0001) %MON dynstat_theta_del2           =   1.3590536050866E-06
(PID.TID 0000.0001) %MON dynstat_salt_max             =   3.4700000000000E+01
(PID.TID 0000.0001) %MON dynstat_salt_min             =   3.4000000000000E+01
(PID.TID 0000.0001) %MON dynstat_salt_mean            =   3.4499195692501E+01
(PID.TID 0000.0001) %MON dynstat_salt_sd              =   2.7633702273594E-01
(PID.TID 0000.0001) %MON dynstat_salt_del2            =   5.2013961549275E-07
(PID.TID 0000.0001) %MON advcfl_uvel_max              =   8.5512648531996E-04
(PID.TID 0000.0001) %MON advcfl_vvel_max              =   7.0338395091478E-04
(PID.TID 0000.0001) %MON advcfl_wvel_max              =   1.6059743413876E-03
(PID.TID 0000.0001) %MON advcfl_W_hf_max              =   1.6059743413876E-03
(PID.TID 0000.0001) %MON pe_b_mean                    =  -8.2998568603903E-01
(PID.TID 0000.0001) %MON ke_max                       =   2.1995206269343E-05
(PID.TID 0000.0001) %MON ke_mean                      =   5.7219525895968E-08
(PID.TID 0000.0001) %MON ke_vol                       =   4.2725052388328E+12
(PID.TID 0000.0001) // =======================================================
(PID.TID 0000.0001) // End MONITOR dynamic field statistics
(PID.TID 0000.0001) // =======================================================
(PID.TID 0000.0001) // =======================================================
(PID.TID 0000.0001) // Begin OBCS MONITOR field statistics
(PID.TID 0000.0001) // =======================================================
(PID.TID 0000.0001) %MON obc_N_vVel_max               =   1.4733413934905E-05
(PID.TID 0000.0001) %MON obc_N_vVel_min               =   1.4733413934905E-05
(PID.TID 0000.0001) %MON obc_N_vVel_mean              =   1.4733413934905E-05
(PID.TID 0000.0001) %MON obc_N_vVel_sd                =  -1.5716431638508E-23
(PID.TID 0000.0001) %MON obc_N_vVel_Int               =   9.7240531970373E+02
(PID.TID 0000.0001) // =======================================================
(PID.TID 0000.0001) // End OBCS MONITOR field statistics
(PID.TID 0000.0001) // =======================================================
 cg2d: Sum(rhs),rhsMax =   4.50895058415044E+00  2.99906808765242E+02
(PID.TID 0000.0001)      cg2d_init_res =   5.95210489678396E-06
(PID.TID 0000.0001)      cg2d_iters(min,last) =      -1      78
(PID.TID 0000.0001)      cg2d_last_res =   8.17949092759938E-12
(PID.TID 0000.0001) // =======================================================
(PID.TID 0000.0001) // Begin MONITOR dynamic field statistics
(PID.TID 0000.0001) // =======================================================
(PID.TID 0000.0001) %MON time_tsnumber                =                   689
(PID.TID 0000.0001) %MON time_secondsf                =   6.8900000000000E+04
(PID.TID 0000.0001) %MON dynstat_eta_max              =   5.7979610357269E+00
(PID.TID 0000.0001) %MON dynstat_eta_min              =  -1.4191965698484E+01
(PID.TID 0000.0001) %MON dynstat_eta_mean             =  -2.5041944084680E+00
(PID.TID 0000.0001) %MON dynstat_eta_sd               =   4.9499912712615E+00
(PID.TID 0000.0001) %MON dynstat_eta_del2             =   2.0714330027370E-01
(PID.TID 0000.0001) %MON dynstat_uvel_max             =   1.9484488212993E-03
(PID.TID 0000.0001) %MON dynstat_uvel_min             =  -8.5770403184959E-03
(PID.TID 0000.0001) %MON dynstat_uvel_mean            =  -1.1752525702839E-07
(PID.TID 0000.0001) %MON dynstat_uvel_sd              =   2.7681893380681E-04
(PID.TID 0000.0001) %MON dynstat_uvel_del2            =   4.7167027535866E-07
(PID.TID 0000.0001) %MON dynstat_vvel_max             =   7.0548414914637E-03
(PID.TID 0000.0001) %MON dynstat_vvel_min             =  -3.6183477719369E-03
(PID.TID 0000.0001) %MON dynstat_vvel_mean            =   1.4970577105675E-05
(PID.TID 0000.0001) %MON dynstat_vvel_sd              =   1.9873020416188E-04
(PID.TID 0000.0001) %MON dynstat_vvel_del2            =   4.3768284990077E-07
(PID.TID 0000.0001) %MON dynstat_wvel_max             =   3.0333647417688E-04
(PID.TID 0000.0001) %MON dynstat_wvel_min             =  -3.2214989256952E-04
(PID.TID 0000.0001) %MON dynstat_wvel_mean            =   6.6354836290774E-09
(PID.TID 0000.0001) %MON dynstat_wvel_sd              =   1.7927538234440E-05
(PID.TID 0000.0001) %MON dynstat_wvel_del2            =   7.4611967929176E-08
(PID.TID 0000.0001) %MON dynstat_theta_max            =   1.2000000000000E+00
(PID.TID 0000.0001) %MON dynstat_theta_min            =  -1.0000000000000E+00
(PID.TID 0000.0001) %MON dynstat_theta_mean           =   5.6895342624241E-01
(PID.TID 0000.0001) %MON dynstat_theta_sd             =   8.6850411568299E-01
(PID.TID 0000.0001) %MON dynstat_theta_del2           =   1.3614436467271E-06
(PID.TID 0000.0001) %MON dynstat_salt_max             =   3.4700000000000E+01
(PID.TID 0000.0001) %MON dynstat_salt_min             =   3.4000000000000E+01
(PID.TID 0000.0001) %MON dynstat_salt_mean            =   3.4499195528820E+01
(PID.TID 0000.0001) %MON dynstat_salt_sd              =   2.7633693801749E-01
(PID.TID 0000.0001) %MON dynstat_salt_del2            =   5.2109742094688E-07
(PID.TID 0000.0001) %MON advcfl_uvel_max              =   8.5770403184959E-04
(PID.TID 0000.0001) %MON advcfl_vvel_max              =   7.0548414914637E-04
(PID.TID 0000.0001) %MON advcfl_wvel_max              =   1.6107494628476E-03
(PID.TID 0000.0001) %MON advcfl_W_hf_max              =   1.6107494628476E-03
(PID.TID 0000.0001) %MON pe_b_mean                    =  -8.2998933026678E-01
(PID.TID 0000.0001) %MON ke_max                       =   2.2116614935205E-05
(PID.TID 0000.0001) %MON ke_mean                      =   5.7411621263017E-08
(PID.TID 0000.0001) %MON ke_vol                       =   4.2725051620109E+12
(PID.TID 0000.0001) // =======================================================
(PID.TID 0000.0001) // End MONITOR dynamic field statistics
(PID.TID 0000.0001) // =======================================================
(PID.TID 0000.0001) // =======================================================
(PID.TID 0000.0001) // Begin OBCS MONITOR field statistics
(PID.TID 0000.0001) // =======================================================
(PID.TID 0000.0001) %MON obc_N_vVel_max               =   1.4733971403383E-05
(PID.TID 0000.0001) %MON obc_N_vVel_min               =   1.4733971403383E-05
(PID.TID 0000.0001) %MON obc_N_vVel_mean              =   1.4733971403383E-05
(PID.TID 0000.0001) %MON obc_N_vVel_sd                =   2.9602271220691E-12
(PID.TID 0000.0001) %MON obc_N_vVel_Int               =   9.7244211262325E+02
(PID.TID 0000.0001) // =======================================================
(PID.TID 0000.0001) // End OBCS MONITOR field statistics
(PID.TID 0000.0001) // =======================================================
 cg2d: Sum(rhs),rhsMax =   4.50897271706127E+00  2.99906884501034E+02
(PID.TID 0000.0001)      cg2d_init_res =   5.92908481383478E-06
(PID.TID 0000.0001)      cg2d_iters(min,last) =      -1      78
(PID.TID 0000.0001)      cg2d_last_res =   8.20057937475679E-12
(PID.TID 0000.0001) // =======================================================
(PID.TID 0000.0001) // Begin MONITOR dynamic field statistics
(PID.TID 0000.0001) // =======================================================
(PID.TID 0000.0001) %MON time_tsnumber                =                   690
(PID.TID 0000.0001) %MON time_secondsf                =   6.9000000000000E+04
(PID.TID 0000.0001) %MON dynstat_eta_max              =   5.7979500643532E+00
(PID.TID 0000.0001) %MON dynstat_eta_min              =  -1.4191990325383E+01
(PID.TID 0000.0001) %MON dynstat_eta_mean             =  -2.5042073331000E+00
(PID.TID 0000.0001) %MON dynstat_eta_sd               =   4.9499956070495E+00
(PID.TID 0000.0001) %MON dynstat_eta_del2             =   2.0714331302281E-01
(PID.TID 0000.0001) %MON dynstat_uvel_max             =   1.9514655581330E-03
(PID.TID 0000.0001) %MON dynstat_uvel_min             =  -8.6028846001156E-03
(PID.TID 0000.0001) %MON dynstat_uvel_mean            =  -1.1752762302494E-07
(PID.TID 0000.0001) %MON dynstat_uvel_sd              =   2.7738050108531E-04
(PID.TID 0000.0001) %MON dynstat_uvel_del2            =   4.7256172914306E-07
(PID.TID 0000.0001) %MON dynstat_vvel_max             =   7.0758893622029E-03
(PID.TID 0000.0001) %MON dynstat_vvel_min             =  -3.6271812418240E-03
(PID.TID 0000.0001) %MON dynstat_vvel_mean            =   1.4971283582818E-05
(PID.TID 0000.0001) %MON dynstat_vvel_sd              =   1.9892921774313E-04
(PID.TID 0000.0001) %MON dynstat_vvel_del2            =   4.3697190349594E-07
(PID.TID 0000.0001) %MON dynstat_wvel_max             =   3.0440879056721E-04
(PID.TID 0000.0001) %MON dynstat_wvel_min             =  -3.2310738965300E-04
(PID.TID 0000.0001) %MON dynstat_wvel_mean            =   6.6366482356004E-09
(PID.TID 0000.0001) %MON dynstat_wvel_sd              =   1.7563470802934E-05
(PID.TID 0000.0001) %MON dynstat_wvel_del2            =   7.2061157296255E-08
(PID.TID 0000.0001) %MON dynstat_theta_max            =   1.2000000000000E+00
(PID.TID 0000.0001) %MON dynstat_theta_min            =  -1.0000000000000E+00
(PID.TID 0000.0001) %MON dynstat_theta_mean           =   5.6895301636332E-01
(PID.TID 0000.0001) %MON dynstat_theta_sd             =   8.6850389070514E-01
(PID.TID 0000.0001) %MON dynstat_theta_del2           =   1.3639543782960E-06
(PID.TID 0000.0001) %MON dynstat_salt_max             =   3.4700000000000E+01
(PID.TID 0000.0001) %MON dynstat_salt_min             =   3.4000000000000E+01
(PID.TID 0000.0001) %MON dynstat_salt_mean            =   3.4499195364977E+01
(PID.TID 0000.0001) %MON dynstat_salt_sd              =   2.7633685313791E-01
(PID.TID 0000.0001) %MON dynstat_salt_del2            =   5.2208788252453E-07
(PID.TID 0000.0001) %MON advcfl_uvel_max              =   8.6028846001156E-04
(PID.TID 0000.0001) %MON advcfl_vvel_max              =   7.0758893622029E-04
(PID.TID 0000.0001) %MON advcfl_wvel_max              =   1.6155369482650E-03
(PID.TID 0000.0001) %MON advcfl_W_hf_max              =   1.6155369482650E-03
(PID.TID 0000.0001) %MON pe_b_mean                    =  -8.2999297295467E-01
(PID.TID 0000.0001) %MON ke_max                       =   2.2238641082253E-05
(PID.TID 0000.0001) %MON ke_mean                      =   5.7603725365768E-08
(PID.TID 0000.0001) %MON ke_vol                       =   4.2725050852137E+12
(PID.TID 0000.0001) // =======================================================
(PID.TID 0000.0001) // End MONITOR dynamic field statistics
(PID.TID 0000.0001) // =======================================================
(PID.TID 0000.0001) // =======================================================
(PID.TID 0000.0001) // Begin OBCS MONITOR field statistics
(PID.TID 0000.0001) // =======================================================
(PID.TID 0000.0001) %MON obc_N_vVel_max               =   1.4734538244644E-05
(PID.TID 0000.0001) %MON obc_N_vVel_min               =   1.4734538244644E-05
(PID.TID 0000.0001) %MON obc_N_vVel_mean              =   1.4734538244644E-05
(PID.TID 0000.0001) %MON obc_N_vVel_sd                =  -1.2485257370722E-23
(PID.TID 0000.0001) %MON obc_N_vVel_Int               =   9.7247952414650E+02
(PID.TID 0000.0001) // =======================================================
(PID.TID 0000.0001) // End OBCS MONITOR field statistics
(PID.TID 0000.0001) // =======================================================
 cg2d: Sum(rhs),rhsMax =   4.50899484216935E+00  2.99906960249493E+02
(PID.TID 0000.0001)      cg2d_init_res =   5.90478439576701E-06
(PID.TID 0000.0001)      cg2d_iters(min,last) =      -1      78
(PID.TID 0000.0001)      cg2d_last_res =   8.22324030343194E-12
(PID.TID 0000.0001) // =======================================================
(PID.TID 0000.0001) // Begin MONITOR dynamic field statistics
(PID.TID 0000.0001) // =======================================================
(PID.TID 0000.0001) %MON time_tsnumber                =                   691
(PID.TID 0000.0001) %MON time_secondsf                =   6.9100000000000E+04
(PID.TID 0000.0001) %MON dynstat_eta_max              =   5.7979391127974E+00
(PID.TID 0000.0001) %MON dynstat_eta_min              =  -1.4192014953163E+01
(PID.TID 0000.0001) %MON dynstat_eta_mean             =  -2.5042202535105E+00
(PID.TID 0000.0001) %MON dynstat_eta_sd               =   4.9499999418182E+00
(PID.TID 0000.0001) %MON dynstat_eta_del2             =   2.0714332579936E-01
(PID.TID 0000.0001) %MON dynstat_uvel_max             =   1.9544804451477E-03
(PID.TID 0000.0001) %MON dynstat_uvel_min             =  -8.6287978109176E-03
(PID.TID 0000.0001) %MON dynstat_uvel_mean            =  -1.1752781764812E-07
(PID.TID 0000.0001) %MON dynstat_uvel_sd              =   2.7794477094056E-04
(PID.TID 0000.0001) %MON dynstat_uvel_del2            =   4.7345408486239E-07
(PID.TID 0000.0001) %MON dynstat_vvel_max             =   7.0969831866177E-03
(PID.TID 0000.0001) %MON dynstat_vvel_min             =  -3.6360212697613E-03
(PID.TID 0000.0001) %MON dynstat_vvel_mean            =   1.4971965031554E-05
(PID.TID 0000.0001) %MON dynstat_vvel_sd              =   1.9913172000954E-04
(PID.TID 0000.0001) %MON dynstat_vvel_del2            =   4.3628912383171E-07
(PID.TID 0000.0001) %MON dynstat_wvel_max             =   3.0548373114653E-04
(PID.TID 0000.0001) %MON dynstat_wvel_min             =  -3.2406736846941E-04
(PID.TID 0000.0001) %MON dynstat_wvel_mean            =   6.6376296275387E-09
(PID.TID 0000.0001) %MON dynstat_wvel_sd              =   1.7197638044254E-05
(PID.TID 0000.0001) %MON dynstat_wvel_del2            =   6.9383632835086E-08
(PID.TID 0000.0001) %MON dynstat_theta_max            =   1.2000000000000E+00
(PID.TID 0000.0001) %MON dynstat_theta_min            =  -1.0000000000000E+00
(PID.TID 0000.0001) %MON dynstat_theta_mean           =   5.6895260610411E-01
(PID.TID 0000.0001) %MON dynstat_theta_sd             =   8.6850366531194E-01
(PID.TID 0000.0001) %MON dynstat_theta_del2           =   1.3664821258318E-06
(PID.TID 0000.0001) %MON dynstat_salt_max             =   3.4700000000000E+01
(PID.TID 0000.0001) %MON dynstat_salt_min             =   3.4000000000000E+01
(PID.TID 0000.0001) %MON dynstat_salt_mean            =   3.4499195200965E+01
(PID.TID 0000.0001) %MON dynstat_salt_sd              =   2.7633676809880E-01
(PID.TID 0000.0001) %MON dynstat_salt_del2            =   5.2308347260637E-07
(PID.TID 0000.0001) %MON advcfl_uvel_max              =   8.6287978109176E-04
(PID.TID 0000.0001) %MON advcfl_vvel_max              =   7.0969831866177E-04
(PID.TID 0000.0001) %MON advcfl_wvel_max              =   1.6203368423471E-03
(PID.TID 0000.0001) %MON advcfl_W_hf_max              =   1.6203368423471E-03
(PID.TID 0000.0001) %MON pe_b_mean                    =  -8.2999661408669E-01
(PID.TID 0000.0001) %MON ke_max                       =   2.2361287314361E-05
(PID.TID 0000.0001) %MON ke_mean                      =   5.7797608730421E-08
(PID.TID 0000.0001) %MON ke_vol                       =   4.2725050084414E+12
(PID.TID 0000.0001) // =======================================================
(PID.TID 0000.0001) // End MONITOR dynamic field statistics
(PID.TID 0000.0001) // =======================================================
(PID.TID 0000.0001) // =======================================================
(PID.TID 0000.0001) // Begin OBCS MONITOR field statistics
(PID.TID 0000.0001) // =======================================================
(PID.TID 0000.0001) %MON obc_N_vVel_max               =   1.4735096827352E-05
(PID.TID 0000.0001) %MON obc_N_vVel_min               =   1.4735096827351E-05
(PID.TID 0000.0001) %MON obc_N_vVel_mean              =   1.4735096827351E-05
(PID.TID 0000.0001) %MON obc_N_vVel_sd                =   7.8764551634271E-13
(PID.TID 0000.0001) %MON obc_N_vVel_Int               =   9.7251639060520E+02
(PID.TID 0000.0001) // =======================================================
(PID.TID 0000.0001) // End OBCS MONITOR field statistics
(PID.TID 0000.0001) // =======================================================
 cg2d: Sum(rhs),rhsMax =   4.50901695939203E+00  2.99907036009887E+02
(PID.TID 0000.0001)      cg2d_init_res =   5.88109433502854E-06
(PID.TID 0000.0001)      cg2d_iters(min,last) =      -1      78
(PID.TID 0000.0001)      cg2d_last_res =   8.24587809909577E-12
(PID.TID 0000.0001) // =======================================================
(PID.TID 0000.0001) // Begin MONITOR dynamic field statistics
(PID.TID 0000.0001) // =======================================================
(PID.TID 0000.0001) %MON time_tsnumber                =                   692
(PID.TID 0000.0001) %MON time_secondsf                =   6.9200000000000E+04
(PID.TID 0000.0001) %MON dynstat_eta_max              =   5.7979281811535E+00
(PID.TID 0000.0001) %MON dynstat_eta_min              =  -1.4192039581760E+01
(PID.TID 0000.0001) %MON dynstat_eta_mean             =  -2.5042331696474E+00
(PID.TID 0000.0001) %MON dynstat_eta_sd               =   4.9500042755374E+00
(PID.TID 0000.0001) %MON dynstat_eta_del2             =   2.0714333860342E-01
(PID.TID 0000.0001) %MON dynstat_uvel_max             =   1.9574935149542E-03
(PID.TID 0000.0001) %MON dynstat_uvel_min             =  -8.6547800631571E-03
(PID.TID 0000.0001) %MON dynstat_uvel_mean            =  -1.1752554078421E-07
(PID.TID 0000.0001) %MON dynstat_uvel_sd              =   2.7851171530946E-04
(PID.TID 0000.0001) %MON dynstat_uvel_del2            =   4.7434702317695E-07
(PID.TID 0000.0001) %MON dynstat_vvel_max             =   7.1181230300019E-03
(PID.TID 0000.0001) %MON dynstat_vvel_min             =  -3.6448678801291E-03
(PID.TID 0000.0001) %MON dynstat_vvel_mean            =   1.4972601920337E-05
(PID.TID 0000.0001) %MON dynstat_vvel_sd              =   1.9934636667360E-04
(PID.TID 0000.0001) %MON dynstat_vvel_del2            =   4.3573636921921E-07
(PID.TID 0000.0001) %MON dynstat_wvel_max             =   3.0656130267676E-04
(PID.TID 0000.0001) %MON dynstat_wvel_min             =  -3.2502983790400E-04
(PID.TID 0000.0001) %MON dynstat_wvel_mean            =   6.6384080830061E-09
(PID.TID 0000.0001) %MON dynstat_wvel_sd              =   1.6857980252319E-05
(PID.TID 0000.0001) %MON dynstat_wvel_del2            =   6.6778151498467E-08
(PID.TID 0000.0001) %MON dynstat_theta_max            =   1.2000000000000E+00
(PID.TID 0000.0001) %MON dynstat_theta_min            =  -1.0000000000000E+00
(PID.TID 0000.0001) %MON dynstat_theta_mean           =   5.6895219544267E-01
(PID.TID 0000.0001) %MON dynstat_theta_sd             =   8.6850343950362E-01
(PID.TID 0000.0001) %MON dynstat_theta_del2           =   1.3689268418506E-06
(PID.TID 0000.0001) %MON dynstat_salt_max             =   3.4700000000000E+01
(PID.TID 0000.0001) %MON dynstat_salt_min             =   3.4000000000000E+01
(PID.TID 0000.0001) %MON dynstat_salt_mean            =   3.4499195036777E+01
(PID.TID 0000.0001) %MON dynstat_salt_sd              =   2.7633668290038E-01
(PID.TID 0000.0001) %MON dynstat_salt_del2            =   5.2405775504914E-07
(PID.TID 0000.0001) %MON advcfl_uvel_max              =   8.6547800631571E-04
(PID.TID 0000.0001) %MON advcfl_vvel_max              =   7.1181230300019E-04
(PID.TID 0000.0001) %MON advcfl_wvel_max              =   1.6251491895200E-03
(PID.TID 0000.0001) %MON advcfl_W_hf_max              =   1.6251491895200E-03
(PID.TID 0000.0001) %MON pe_b_mean                    =  -8.3000025364268E-01
(PID.TID 0000.0001) %MON ke_max                       =   2.2484556241783E-05
(PID.TID 0000.0001) %MON ke_mean                      =   5.7994995304595E-08
(PID.TID 0000.0001) %MON ke_vol                       =   4.2725049316941E+12
(PID.TID 0000.0001) // =======================================================
(PID.TID 0000.0001) // End MONITOR dynamic field statistics
(PID.TID 0000.0001) // =======================================================
(PID.TID 0000.0001) // =======================================================
(PID.TID 0000.0001) // Begin OBCS MONITOR field statistics
(PID.TID 0000.0001) // =======================================================
(PID.TID 0000.0001) %MON obc_N_vVel_max               =   1.4735630178668E-05
(PID.TID 0000.0001) %MON obc_N_vVel_min               =   1.4735630178668E-05
(PID.TID 0000.0001) %MON obc_N_vVel_mean              =   1.4735630178668E-05
(PID.TID 0000.0001) %MON obc_N_vVel_sd                =  -9.1765349205102E-24
(PID.TID 0000.0001) %MON obc_N_vVel_Int               =   9.7255159179209E+02
(PID.TID 0000.0001) // =======================================================
(PID.TID 0000.0001) // End OBCS MONITOR field statistics
(PID.TID 0000.0001) // =======================================================
 cg2d: Sum(rhs),rhsMax =   4.50903906861377E+00  2.99907111781596E+02
(PID.TID 0000.0001)      cg2d_init_res =   5.85986629029301E-06
(PID.TID 0000.0001)      cg2d_iters(min,last) =      -1      78
(PID.TID 0000.0001)      cg2d_last_res =   8.26629845096091E-12
(PID.TID 0000.0001) // =======================================================
(PID.TID 0000.0001) // Begin MONITOR dynamic field statistics
(PID.TID 0000.0001) // =======================================================
(PID.TID 0000.0001) %MON time_tsnumber                =                   693
(PID.TID 0000.0001) %MON time_secondsf                =   6.9300000000000E+04
(PID.TID 0000.0001) %MON dynstat_eta_max              =   5.7979172695569E+00
(PID.TID 0000.0001) %MON dynstat_eta_min              =  -1.4192064211064E+01
(PID.TID 0000.0001) %MON dynstat_eta_mean             =  -2.5042460814414E+00
(PID.TID 0000.0001) %MON dynstat_eta_sd               =   4.9500086081726E+00
(PID.TID 0000.0001) %MON dynstat_eta_del2             =   2.0714335143515E-01
(PID.TID 0000.0001) %MON dynstat_uvel_max             =   1.9605047989413E-03
(PID.TID 0000.0001) %MON dynstat_uvel_min             =  -8.6808314685989E-03
(PID.TID 0000.0001) %MON dynstat_uvel_mean            =  -1.1752070493118E-07
(PID.TID 0000.0001) %MON dynstat_uvel_sd              =   2.7908130967136E-04
(PID.TID 0000.0001) %MON dynstat_uvel_del2            =   4.7524027334835E-07
(PID.TID 0000.0001) %MON dynstat_vvel_max             =   7.1393089578762E-03
(PID.TID 0000.0001) %MON dynstat_vvel_min             =  -3.6537210973302E-03
(PID.TID 0000.0001) %MON dynstat_vvel_mean            =   1.4973176588974E-05
(PID.TID 0000.0001) %MON dynstat_vvel_sd              =   1.9958086594131E-04
(PID.TID 0000.0001) %MON dynstat_vvel_del2            =   4.3540484703418E-07
(PID.TID 0000.0001) %MON dynstat_wvel_max             =   3.0764151189917E-04
(PID.TID 0000.0001) %MON dynstat_wvel_min             =  -3.2599480688956E-04
(PID.TID 0000.0001) %MON dynstat_wvel_mean            =   6.6389709985604E-09
(PID.TID 0000.0001) %MON dynstat_wvel_sd              =   1.6571549189945E-05
(PID.TID 0000.0001) %MON dynstat_wvel_del2            =   6.4458761344217E-08
(PID.TID 0000.0001) %MON dynstat_theta_max            =   1.2000000000000E+00
(PID.TID 0000.0001) %MON dynstat_theta_min            =  -1.0000000000000E+00
(PID.TID 0000.0001) %MON dynstat_theta_mean           =   5.6895178435360E-01
(PID.TID 0000.0001) %MON dynstat_theta_sd             =   8.6850321328339E-01
(PID.TID 0000.0001) %MON dynstat_theta_del2           =   1.3712009070235E-06
(PID.TID 0000.0001) %MON dynstat_salt_max             =   3.4700000000000E+01
(PID.TID 0000.0001) %MON dynstat_salt_min             =   3.4000000000000E+01
(PID.TID 0000.0001) %MON dynstat_salt_mean            =   3.4499194872405E+01
(PID.TID 0000.0001) %MON dynstat_salt_sd              =   2.7633659754344E-01
(PID.TID 0000.0001) %MON dynstat_salt_del2            =   5.2498760498447E-07
(PID.TID 0000.0001) %MON advcfl_uvel_max              =   8.6808314685989E-04
(PID.TID 0000.0001) %MON advcfl_vvel_max              =   7.1393089578762E-04
(PID.TID 0000.0001) %MON advcfl_wvel_max              =   1.6299740344478E-03
(PID.TID 0000.0001) %MON advcfl_W_hf_max              =   1.6299740344478E-03
(PID.TID 0000.0001) %MON pe_b_mean                    =  -8.3000389159832E-01
(PID.TID 0000.0001) %MON ke_max                       =   2.2608450481548E-05
(PID.TID 0000.0001) %MON ke_mean                      =   5.8197428641775E-08
(PID.TID 0000.0001) %MON ke_vol                       =   4.2725048549723E+12
(PID.TID 0000.0001) // =======================================================
(PID.TID 0000.0001) // End MONITOR dynamic field statistics
(PID.TID 0000.0001) // =======================================================
(PID.TID 0000.0001) // =======================================================
(PID.TID 0000.0001) // Begin OBCS MONITOR field statistics
(PID.TID 0000.0001) // =======================================================
(PID.TID 0000.0001) %MON obc_N_vVel_max               =   1.4736122535650E-05
(PID.TID 0000.0001) %MON obc_N_vVel_min               =   1.4736122535649E-05
(PID.TID 0000.0001) %MON obc_N_vVel_mean              =   1.4736122535649E-05
(PID.TID 0000.0001) %MON obc_N_vVel_sd                =   3.0842465926641E-12
(PID.TID 0000.0001) %MON obc_N_vVel_Int               =   9.7258408735285E+02
(PID.TID 0000.0001) // =======================================================
(PID.TID 0000.0001) // End OBCS MONITOR field statistics
(PID.TID 0000.0001) // =======================================================
 cg2d: Sum(rhs),rhsMax =   4.50906116968811E+00  2.99907187564132E+02
(PID.TID 0000.0001)      cg2d_init_res =   5.84275894584901E-06
(PID.TID 0000.0001)      cg2d_iters(min,last) =      -1      78
(PID.TID 0000.0001)      cg2d_last_res =   8.28198422658349E-12
(PID.TID 0000.0001) // =======================================================
(PID.TID 0000.0001) // Begin MONITOR dynamic field statistics
(PID.TID 0000.0001) // =======================================================
(PID.TID 0000.0001) %MON time_tsnumber                =                   694
(PID.TID 0000.0001) %MON time_secondsf                =   6.9400000000000E+04
(PID.TID 0000.0001) %MON dynstat_eta_max              =   5.7979063781743E+00
(PID.TID 0000.0001) %MON dynstat_eta_min              =  -1.4192088840939E+01
(PID.TID 0000.0001) %MON dynstat_eta_mean             =  -2.5042589888070E+00
(PID.TID 0000.0001) %MON dynstat_eta_sd               =   4.9500129396863E+00
(PID.TID 0000.0001) %MON dynstat_eta_del2             =   2.0714336429471E-01
(PID.TID 0000.0001) %MON dynstat_uvel_max             =   1.9635143270884E-03
(PID.TID 0000.0001) %MON dynstat_uvel_min             =  -8.7069521385921E-03
(PID.TID 0000.0001) %MON dynstat_uvel_mean            =  -1.1751344590726E-07
(PID.TID 0000.0001) %MON dynstat_uvel_sd              =   2.7965353434985E-04
(PID.TID 0000.0001) %MON dynstat_uvel_del2            =   4.7613362579579E-07
(PID.TID 0000.0001) %MON dynstat_vvel_max             =   7.1605410360789E-03
(PID.TID 0000.0001) %MON dynstat_vvel_min             =  -3.6625809457620E-03
(PID.TID 0000.0001) %MON dynstat_vvel_mean            =   1.4973673791950E-05
(PID.TID 0000.0001) %MON dynstat_vvel_sd              =   1.9984138624601E-04
(PID.TID 0000.0001) %MON dynstat_vvel_del2            =   4.3536766467009E-07
(PID.TID 0000.0001) %MON dynstat_wvel_max             =   3.0872436556543E-04
(PID.TID 0000.0001) %MON dynstat_wvel_min             =  -3.2696228436187E-04
(PID.TID 0000.0001) %MON dynstat_wvel_mean            =   6.6393128884279E-09
(PID.TID 0000.0001) %MON dynstat_wvel_sd              =   1.6361786442637E-05
(PID.TID 0000.0001) %MON dynstat_wvel_del2            =   6.2635080531309E-08
(PID.TID 0000.0001) %MON dynstat_theta_max            =   1.2000000000000E+00
(PID.TID 0000.0001) %MON dynstat_theta_min            =  -1.0000000000000E+00
(PID.TID 0000.0001) %MON dynstat_theta_mean           =   5.6895137280861E-01
(PID.TID 0000.0001) %MON dynstat_theta_sd             =   8.6850298666275E-01
(PID.TID 0000.0001) %MON dynstat_theta_del2           =   1.3732362880758E-06
(PID.TID 0000.0001) %MON dynstat_salt_max             =   3.4700000000000E+01
(PID.TID 0000.0001) %MON dynstat_salt_min             =   3.4000000000000E+01
(PID.TID 0000.0001) %MON dynstat_salt_mean            =   3.4499194707840E+01
(PID.TID 0000.0001) %MON dynstat_salt_sd              =   2.7633651203155E-01
(PID.TID 0000.0001) %MON dynstat_salt_del2            =   5.2585493214251E-07
(PID.TID 0000.0001) %MON advcfl_uvel_max              =   8.7069521385921E-04
(PID.TID 0000.0001) %MON advcfl_vvel_max              =   7.1605410360789E-04
(PID.TID 0000.0001) %MON advcfl_wvel_max              =   1.6348114218093E-03
(PID.TID 0000.0001) %MON advcfl_W_hf_max              =   1.6348114218093E-03
(PID.TID 0000.0001) %MON pe_b_mean                    =  -8.3000752792535E-01
(PID.TID 0000.0001) %MON ke_max                       =   2.2732972657187E-05
(PID.TID 0000.0001) %MON ke_mean                      =   5.8406154106086E-08
(PID.TID 0000.0001) %MON ke_vol                       =   4.2725047782762E+12
(PID.TID 0000.0001) // =======================================================
(PID.TID 0000.0001) // End MONITOR dynamic field statistics
(PID.TID 0000.0001) // =======================================================
(PID.TID 0000.0001) // =======================================================
(PID.TID 0000.0001) // Begin OBCS MONITOR field statistics
(PID.TID 0000.0001) // =======================================================
(PID.TID 0000.0001) %MON obc_N_vVel_max               =   1.4736559840543E-05
(PID.TID 0000.0001) %MON obc_N_vVel_min               =   1.4736559840543E-05
(PID.TID 0000.0001) %MON obc_N_vVel_mean              =   1.4736559840543E-05
(PID.TID 0000.0001) %MON obc_N_vVel_sd                =  -5.1698788284564E-25
(PID.TID 0000.0001) %MON obc_N_vVel_Int               =   9.7261294947584E+02
(PID.TID 0000.0001) // =======================================================
(PID.TID 0000.0001) // End OBCS MONITOR field statistics
(PID.TID 0000.0001) // =======================================================
 cg2d: Sum(rhs),rhsMax =   4.50908326243882E+00  2.99907263357120E+02
(PID.TID 0000.0001)      cg2d_init_res =   5.83109020634371E-06
(PID.TID 0000.0001)      cg2d_iters(min,last) =      -1      78
(PID.TID 0000.0001)      cg2d_last_res =   8.29033214622697E-12
(PID.TID 0000.0001) // =======================================================
(PID.TID 0000.0001) // Begin MONITOR dynamic field statistics
(PID.TID 0000.0001) // =======================================================
(PID.TID 0000.0001) %MON time_tsnumber                =                   695
(PID.TID 0000.0001) %MON time_secondsf                =   6.9500000000000E+04
(PID.TID 0000.0001) %MON dynstat_eta_max              =   5.7978955071956E+00
(PID.TID 0000.0001) %MON dynstat_eta_min              =  -1.4192113471223E+01
(PID.TID 0000.0001) %MON dynstat_eta_mean             =  -2.5042718916434E+00
(PID.TID 0000.0001) %MON dynstat_eta_sd               =   4.9500172700304E+00
(PID.TID 0000.0001) %MON dynstat_eta_del2             =   2.0714337718188E-01
(PID.TID 0000.0001) %MON dynstat_uvel_max             =   1.9665221281180E-03
(PID.TID 0000.0001) %MON dynstat_uvel_min             =  -8.7331421839387E-03
(PID.TID 0000.0001) %MON dynstat_uvel_mean            =  -1.1750410343322E-07
(PID.TID 0000.0001) %MON dynstat_uvel_sd              =   2.8022837554229E-04
(PID.TID 0000.0001) %MON dynstat_uvel_del2            =   4.7702693882168E-07
(PID.TID 0000.0001) %MON dynstat_vvel_max             =   7.1818193308375E-03
(PID.TID 0000.0001) %MON dynstat_vvel_min             =  -3.6714474496415E-03
(PID.TID 0000.0001) %MON dynstat_vvel_mean            =   1.4974081174060E-05
(PID.TID 0000.0001) %MON dynstat_vvel_sd              =   2.0013209334163E-04
(PID.TID 0000.0001) %MON dynstat_vvel_del2            =   4.3567379820831E-07
(PID.TID 0000.0001) %MON dynstat_wvel_max             =   3.0980987042626E-04
(PID.TID 0000.0001) %MON dynstat_wvel_min             =  -3.2793227924650E-04
(PID.TID 0000.0001) %MON dynstat_wvel_mean            =   6.6394360283820E-09
(PID.TID 0000.0001) %MON dynstat_wvel_sd              =   1.6245725414888E-05
(PID.TID 0000.0001) %MON dynstat_wvel_del2            =   6.1484168739633E-08
(PID.TID 0000.0001) %MON dynstat_theta_max            =   1.2000000000000E+00
(PID.TID 0000.0001) %MON dynstat_theta_min            =  -1.0000000000000E+00
(PID.TID 0000.0001) %MON dynstat_theta_mean           =   5.6895096077690E-01
(PID.TID 0000.0001) %MON dynstat_theta_sd             =   8.6850275964753E-01
(PID.TID 0000.0001) %MON dynstat_theta_del2           =   1.3749895318047E-06
(PID.TID 0000.0001) %MON dynstat_salt_max             =   3.4700000000000E+01
(PID.TID 0000.0001) %MON dynstat_salt_min             =   3.4000000000000E+01
(PID.TID 0000.0001) %MON dynstat_salt_mean            =   3.4499194543071E+01
(PID.TID 0000.0001) %MON dynstat_salt_sd              =   2.7633642636649E-01
(PID.TID 0000.0001) %MON dynstat_salt_del2            =   5.2664843434932E-07
(PID.TID 0000.0001) %MON advcfl_uvel_max              =   8.7331421839387E-04
(PID.TID 0000.0001) %MON advcfl_vvel_max              =   7.1818193308375E-04
(PID.TID 0000.0001) %MON advcfl_wvel_max              =   1.6396613962325E-03
(PID.TID 0000.0001) %MON advcfl_W_hf_max              =   1.6396613962325E-03
(PID.TID 0000.0001) %MON pe_b_mean                    =  -8.3001116259158E-01
(PID.TID 0000.0001) %MON ke_max                       =   2.2858125400196E-05
(PID.TID 0000.0001) %MON ke_mean                      =   5.8622026102814E-08
(PID.TID 0000.0001) %MON ke_vol                       =   4.2725047016065E+12
(PID.TID 0000.0001) // =======================================================
(PID.TID 0000.0001) // End MONITOR dynamic field statistics
(PID.TID 0000.0001) // =======================================================
(PID.TID 0000.0001) // =======================================================
(PID.TID 0000.0001) // Begin OBCS MONITOR field statistics
(PID.TID 0000.0001) // =======================================================
(PID.TID 0000.0001) %MON obc_N_vVel_max               =   1.4736930164020E-05
(PID.TID 0000.0001) %MON obc_N_vVel_min               =   1.4736930164020E-05
(PID.TID 0000.0001) %MON obc_N_vVel_mean              =   1.4736930164020E-05
(PID.TID 0000.0001) %MON obc_N_vVel_sd                =  -9.6159746209289E-24
(PID.TID 0000.0001) %MON obc_N_vVel_Int               =   9.7263739082530E+02
(PID.TID 0000.0001) // =======================================================
(PID.TID 0000.0001) // End OBCS MONITOR field statistics
(PID.TID 0000.0001) // =======================================================
 cg2d: Sum(rhs),rhsMax =   4.50910534667333E+00  2.99907339160327E+02
(PID.TID 0000.0001)      cg2d_init_res =   5.82575352280322E-06
(PID.TID 0000.0001)      cg2d_iters(min,last) =      -1      78
(PID.TID 0000.0001)      cg2d_last_res =   8.28984151495467E-12
(PID.TID 0000.0001) // =======================================================
(PID.TID 0000.0001) // Begin MONITOR dynamic field statistics
(PID.TID 0000.0001) // =======================================================
(PID.TID 0000.0001) %MON time_tsnumber                =                   696
(PID.TID 0000.0001) %MON time_secondsf                =   6.9600000000000E+04
(PID.TID 0000.0001) %MON dynstat_eta_max              =   5.7978846568281E+00
(PID.TID 0000.0001) %MON dynstat_eta_min              =  -1.4192138101730E+01
(PID.TID 0000.0001) %MON dynstat_eta_mean             =  -2.5042847898415E+00
(PID.TID 0000.0001) %MON dynstat_eta_sd               =   4.9500215991660E+00
(PID.TID 0000.0001) %MON dynstat_eta_del2             =   2.0714339009696E-01
(PID.TID 0000.0001) %MON dynstat_uvel_max             =   1.9695282293304E-03
(PID.TID 0000.0001) %MON dynstat_uvel_min             =  -8.7594017150217E-03
(PID.TID 0000.0001) %MON dynstat_uvel_mean            =  -1.1749316273496E-07
(PID.TID 0000.0001) %MON dynstat_uvel_sd              =   2.8080582598805E-04
(PID.TID 0000.0001) %MON dynstat_uvel_del2            =   4.7792014623306E-07
(PID.TID 0000.0001) %MON dynstat_vvel_max             =   7.2031439087645E-03
(PID.TID 0000.0001) %MON dynstat_vvel_min             =  -3.6803206330536E-03
(PID.TID 0000.0001) %MON dynstat_vvel_mean            =   1.4974389599364E-05
(PID.TID 0000.0001) %MON dynstat_vvel_sd              =   2.0045485333486E-04
(PID.TID 0000.0001) %MON dynstat_vvel_del2            =   4.3634409792981E-07
(PID.TID 0000.0001) %MON dynstat_wvel_max             =   3.1089803322687E-04
(PID.TID 0000.0001) %MON dynstat_wvel_min             =  -3.2890480054486E-04
(PID.TID 0000.0001) %MON dynstat_wvel_mean            =   6.6393493152306E-09
(PID.TID 0000.0001) %MON dynstat_wvel_sd              =   1.6231692676618E-05
(PID.TID 0000.0001) %MON dynstat_wvel_del2            =   6.1119000775014E-08
(PID.TID 0000.0001) %MON dynstat_theta_max            =   1.2000000000000E+00
(PID.TID 0000.0001) %MON dynstat_theta_min            =  -1.0000000000000E+00
(PID.TID 0000.0001) %MON dynstat_theta_mean           =   5.6895054822623E-01
(PID.TID 0000.0001) %MON dynstat_theta_sd             =   8.6850253224612E-01
(PID.TID 0000.0001) %MON dynstat_theta_del2           =   1.3764451912503E-06
(PID.TID 0000.0001) %MON dynstat_salt_max             =   3.4700000000000E+01
(PID.TID 0000.0001) %MON dynstat_salt_min             =   3.4000000000000E+01
(PID.TID 0000.0001) %MON dynstat_salt_mean            =   3.4499194378088E+01
(PID.TID 0000.0001) %MON dynstat_salt_sd              =   2.7633634055078E-01
(PID.TID 0000.0001) %MON dynstat_salt_del2            =   5.2736409280842E-07
(PID.TID 0000.0001) %MON advcfl_uvel_max              =   8.7594017150217E-04
(PID.TID 0000.0001) %MON advcfl_vvel_max              =   7.2031439087645E-04
(PID.TID 0000.0001) %MON advcfl_wvel_max              =   1.6445240027243E-03
(PID.TID 0000.0001) %MON advcfl_W_hf_max              =   1.6445240027243E-03
(PID.TID 0000.0001) %MON pe_b_mean                    =  -8.3001479556382E-01
(PID.TID 0000.0001) %MON ke_max                       =   2.2983911349305E-05
(PID.TID 0000.0001) %MON ke_mean                      =   5.8845447280343E-08
(PID.TID 0000.0001) %MON ke_vol                       =   4.2725046249636E+12
(PID.TID 0000.0001) // =======================================================
(PID.TID 0000.0001) // End MONITOR dynamic field statistics
(PID.TID 0000.0001) // =======================================================
(PID.TID 0000.0001) // =======================================================
(PID.TID 0000.0001) // Begin OBCS MONITOR field statistics
(PID.TID 0000.0001) // =======================================================
(PID.TID 0000.0001) %MON obc_N_vVel_max               =   1.4737224068109E-05
(PID.TID 0000.0001) %MON obc_N_vVel_min               =   1.4737224068109E-05
(PID.TID 0000.0001) %MON obc_N_vVel_mean              =   1.4737224068109E-05
(PID.TID 0000.0001) %MON obc_N_vVel_sd                =   4.0450792936684E-12
(PID.TID 0000.0001) %MON obc_N_vVel_Int               =   9.7265678849517E+02
(PID.TID 0000.0001) // =======================================================
(PID.TID 0000.0001) // End OBCS MONITOR field statistics
(PID.TID 0000.0001) // =======================================================
 cg2d: Sum(rhs),rhsMax =   4.50912742217984E+00  2.99907414973661E+02
(PID.TID 0000.0001)      cg2d_init_res =   5.82710202001261E-06
(PID.TID 0000.0001)      cg2d_iters(min,last) =      -1      78
(PID.TID 0000.0001)      cg2d_last_res =   8.28004848571683E-12
(PID.TID 0000.0001) // =======================================================
(PID.TID 0000.0001) // Begin MONITOR dynamic field statistics
(PID.TID 0000.0001) // =======================================================
(PID.TID 0000.0001) %MON time_tsnumber                =                   697
(PID.TID 0000.0001) %MON time_secondsf                =   6.9700000000000E+04
(PID.TID 0000.0001) %MON dynstat_eta_max              =   5.7978738272794E+00
(PID.TID 0000.0001) %MON dynstat_eta_min              =  -1.4192162732256E+01
(PID.TID 0000.0001) %MON dynstat_eta_mean             =  -2.5042976832830E+00
(PID.TID 0000.0001) %MON dynstat_eta_sd               =   4.9500259270500E+00
(PID.TID 0000.0001) %MON dynstat_eta_del2             =   2.0714340303999E-01
(PID.TID 0000.0001) %MON dynstat_uvel_max             =   1.9725326569078E-03
(PID.TID 0000.0001) %MON dynstat_uvel_min             =  -8.7857308418258E-03
(PID.TID 0000.0001) %MON dynstat_uvel_mean            =  -1.1748120594763E-07
(PID.TID 0000.0001) %MON dynstat_uvel_sd              =   2.8138588532853E-04
(PID.TID 0000.0001) %MON dynstat_uvel_del2            =   4.7881325534292E-07
(PID.TID 0000.0001) %MON dynstat_vvel_max             =   7.2245148369330E-03
(PID.TID 0000.0001) %MON dynstat_vvel_min             =  -3.6892005197569E-03
(PID.TID 0000.0001) %MON dynstat_vvel_mean            =   1.4974593419663E-05
(PID.TID 0000.0001) %MON dynstat_vvel_sd              =   2.0080912444207E-04
(PID.TID 0000.0001) %MON dynstat_vvel_del2            =   4.3736976831823E-07
(PID.TID 0000.0001) %MON dynstat_wvel_max             =   3.1198886070704E-04
(PID.TID 0000.0001) %MON dynstat_wvel_min             =  -3.2987985724727E-04
(PID.TID 0000.0001) %MON dynstat_wvel_mean            =   6.6390688588425E-09
(PID.TID 0000.0001) %MON dynstat_wvel_sd              =   1.6318120376338E-05
(PID.TID 0000.0001) %MON dynstat_wvel_del2            =   6.1564208839035E-08
(PID.TID 0000.0001) %MON dynstat_theta_max            =   1.2000000000000E+00
(PID.TID 0000.0001) %MON dynstat_theta_min            =  -1.0000000000000E+00
(PID.TID 0000.0001) %MON dynstat_theta_mean           =   5.6895013512294E-01
(PID.TID 0000.0001) %MON dynstat_theta_sd             =   8.6850230445192E-01
(PID.TID 0000.0001) %MON dynstat_theta_del2           =   1.3776165280522E-06
(PID.TID 0000.0001) %MON dynstat_salt_max             =   3.4700000000000E+01
(PID.TID 0000.0001) %MON dynstat_salt_min             =   3.4000000000000E+01
(PID.TID 0000.0001) %MON dynstat_salt_mean            =   3.4499194212880E+01
(PID.TID 0000.0001) %MON dynstat_salt_sd              =   2.7633625458215E-01
(PID.TID 0000.0001) %MON dynstat_salt_del2            =   5.2800540861769E-07
(PID.TID 0000.0001) %MON advcfl_uvel_max              =   8.7857308418258E-04
(PID.TID 0000.0001) %MON advcfl_vvel_max              =   7.2245148369330E-04
(PID.TID 0000.0001) %MON advcfl_wvel_max              =   1.6493992862364E-03
(PID.TID 0000.0001) %MON advcfl_W_hf_max              =   1.6493992862364E-03
(PID.TID 0000.0001) %MON pe_b_mean                    =  -8.3001842680703E-01
(PID.TID 0000.0001) %MON ke_max                       =   2.3110333151347E-05
(PID.TID 0000.0001) %MON ke_mean                      =   5.9076344134245E-08
(PID.TID 0000.0001) %MON ke_vol                       =   4.2725045483483E+12
(PID.TID 0000.0001) // =======================================================
(PID.TID 0000.0001) // End MONITOR dynamic field statistics
(PID.TID 0000.0001) // =======================================================
(PID.TID 0000.0001) // =======================================================
(PID.TID 0000.0001) // Begin OBCS MONITOR field statistics
(PID.TID 0000.0001) // =======================================================
(PID.TID 0000.0001) %MON obc_N_vVel_max               =   1.4737434879168E-05
(PID.TID 0000.0001) %MON obc_N_vVel_min               =   1.4737434879168E-05
(PID.TID 0000.0001) %MON obc_N_vVel_mean              =   1.4737434879168E-05
(PID.TID 0000.0001) %MON obc_N_vVel_sd                =  -1.8508166205874E-23
(PID.TID 0000.0001) %MON obc_N_vVel_Int               =   9.7267070202509E+02
(PID.TID 0000.0001) // =======================================================
(PID.TID 0000.0001) // End OBCS MONITOR field statistics
(PID.TID 0000.0001) // =======================================================
 cg2d: Sum(rhs),rhsMax =   4.50914948873719E+00  2.99907490797161E+02
(PID.TID 0000.0001)      cg2d_init_res =   5.83494141628312E-06
(PID.TID 0000.0001)      cg2d_iters(min,last) =      -1      78
(PID.TID 0000.0001)      cg2d_last_res =   8.26229595607874E-12
(PID.TID 0000.0001) // =======================================================
(PID.TID 0000.0001) // Begin MONITOR dynamic field statistics
(PID.TID 0000.0001) // =======================================================
(PID.TID 0000.0001) %MON time_tsnumber                =                   698
(PID.TID 0000.0001) %MON time_secondsf                =   6.9800000000000E+04
(PID.TID 0000.0001) %MON dynstat_eta_max              =   5.7978630187632E+00
(PID.TID 0000.0001) %MON dynstat_eta_min              =  -1.4192187362590E+01
(PID.TID 0000.0001) %MON dynstat_eta_mean             =  -2.5043105718453E+00
(PID.TID 0000.0001) %MON dynstat_eta_sd               =   4.9500302536415E+00
(PID.TID 0000.0001) %MON dynstat_eta_del2             =   2.0714341601109E-01
(PID.TID 0000.0001) %MON dynstat_uvel_max             =   1.9763049786476E-03
(PID.TID 0000.0001) %MON dynstat_uvel_min             =  -8.8121296736858E-03
(PID.TID 0000.0001) %MON dynstat_uvel_mean            =  -1.1746885867834E-07
(PID.TID 0000.0001) %MON dynstat_uvel_sd              =   2.8196856012978E-04
(PID.TID 0000.0001) %MON dynstat_uvel_del2            =   4.7970634267144E-07
(PID.TID 0000.0001) %MON dynstat_vvel_max             =   7.2459321827472E-03
(PID.TID 0000.0001) %MON dynstat_vvel_min             =  -3.6980871332339E-03
(PID.TID 0000.0001) %MON dynstat_vvel_mean            =   1.4974690571914E-05
(PID.TID 0000.0001) %MON dynstat_vvel_sd              =   2.0119204384846E-04
(PID.TID 0000.0001) %MON dynstat_vvel_del2            =   4.3871347785594E-07
(PID.TID 0000.0001) %MON dynstat_wvel_max             =   3.1308235961727E-04
(PID.TID 0000.0001) %MON dynstat_wvel_min             =  -3.3085745839446E-04
(PID.TID 0000.0001) %MON dynstat_wvel_mean            =   6.6386166555789E-09
(PID.TID 0000.0001) %MON dynstat_wvel_sd              =   1.6493836454596E-05
(PID.TID 0000.0001) %MON dynstat_wvel_del2            =   6.2750171200806E-08
(PID.TID 0000.0001) %MON dynstat_theta_max            =   1.2000000000000E+00
(PID.TID 0000.0001) %MON dynstat_theta_min            =  -1.0000000000000E+00
(PID.TID 0000.0001) %MON dynstat_theta_mean           =   5.6894972143290E-01
(PID.TID 0000.0001) %MON dynstat_theta_sd             =   8.6850207624931E-01
(PID.TID 0000.0001) %MON dynstat_theta_del2           =   1.3785440802857E-06
(PID.TID 0000.0001) %MON dynstat_salt_max             =   3.4700000000000E+01
(PID.TID 0000.0001) %MON dynstat_salt_min             =   3.4000000000000E+01
(PID.TID 0000.0001) %MON dynstat_salt_mean            =   3.4499194047435E+01
(PID.TID 0000.0001) %MON dynstat_salt_sd              =   2.7633616845564E-01
(PID.TID 0000.0001) %MON dynstat_salt_del2            =   5.2858317846258E-07
(PID.TID 0000.0001) %MON advcfl_uvel_max              =   8.8121296736858E-04
(PID.TID 0000.0001) %MON advcfl_vvel_max              =   7.2459321827472E-04
(PID.TID 0000.0001) %MON advcfl_wvel_max              =   1.6542872919723E-03
(PID.TID 0000.0001) %MON advcfl_W_hf_max              =   1.6542872919723E-03
(PID.TID 0000.0001) %MON pe_b_mean                    =  -8.3002205628600E-01
(PID.TID 0000.0001) %MON ke_max                       =   2.3237393460765E-05
(PID.TID 0000.0001) %MON ke_mean                      =   5.9314180457186E-08
(PID.TID 0000.0001) %MON ke_vol                       =   4.2725044717613E+12
(PID.TID 0000.0001) // =======================================================
(PID.TID 0000.0001) // End MONITOR dynamic field statistics
(PID.TID 0000.0001) // =======================================================
(PID.TID 0000.0001) // =======================================================
(PID.TID 0000.0001) // Begin OBCS MONITOR field statistics
(PID.TID 0000.0001) // =======================================================
(PID.TID 0000.0001) %MON obc_N_vVel_max               =   1.4737558846095E-05
(PID.TID 0000.0001) %MON obc_N_vVel_min               =   1.4737558846094E-05
(PID.TID 0000.0001) %MON obc_N_vVel_mean              =   1.4737558846094E-05
(PID.TID 0000.0001) %MON obc_N_vVel_sd                =   4.9763158650056E-12
(PID.TID 0000.0001) %MON obc_N_vVel_Int               =   9.7267888384220E+02
(PID.TID 0000.0001) // =======================================================
(PID.TID 0000.0001) // End OBCS MONITOR field statistics
(PID.TID 0000.0001) // =======================================================
 cg2d: Sum(rhs),rhsMax =   4.50917154611941E+00  2.99907566630972E+02
(PID.TID 0000.0001)      cg2d_init_res =   5.84855726772474E-06
(PID.TID 0000.0001)      cg2d_iters(min,last) =      -1      78
(PID.TID 0000.0001)      cg2d_last_res =   8.23941649213942E-12
(PID.TID 0000.0001) // =======================================================
(PID.TID 0000.0001) // Begin MONITOR dynamic field statistics
(PID.TID 0000.0001) // =======================================================
(PID.TID 0000.0001) %MON time_tsnumber                =                   699
(PID.TID 0000.0001) %MON time_secondsf                =   6.9900000000000E+04
(PID.TID 0000.0001) %MON dynstat_eta_max              =   5.7978522314794E+00
(PID.TID 0000.0001) %MON dynstat_eta_min              =  -1.4192211992520E+01
(PID.TID 0000.0001) %MON dynstat_eta_mean             =  -2.5043234554042E+00
(PID.TID 0000.0001) %MON dynstat_eta_sd               =   4.9500345789032E+00
(PID.TID 0000.0001) %MON dynstat_eta_del2             =   2.0714342901046E-01
(PID.TID 0000.0001) %MON dynstat_uvel_max             =   1.9822258446140E-03
(PID.TID 0000.0001) %MON dynstat_uvel_min             =  -8.8385983193255E-03
(PID.TID 0000.0001) %MON dynstat_uvel_mean            =  -1.1745672673939E-07
(PID.TID 0000.0001) %MON dynstat_uvel_sd              =   2.8255386354409E-04
(PID.TID 0000.0001) %MON dynstat_uvel_del2            =   4.8059954542195E-07
(PID.TID 0000.0001) %MON dynstat_vvel_max             =   7.2673960140266E-03
(PID.TID 0000.0001) %MON dynstat_vvel_min             =  -3.7069804966103E-03
(PID.TID 0000.0001) %MON dynstat_vvel_mean            =   1.4974682584666E-05
(PID.TID 0000.0001) %MON dynstat_vvel_sd              =   2.0159869938668E-04
(PID.TID 0000.0001) %MON dynstat_vvel_del2            =   4.4031295926733E-07
(PID.TID 0000.0001) %MON dynstat_wvel_max             =   3.1417853669873E-04
(PID.TID 0000.0001) %MON dynstat_wvel_min             =  -3.3183761304833E-04
(PID.TID 0000.0001) %MON dynstat_wvel_mean            =   6.6380199712819E-09
(PID.TID 0000.0001) %MON dynstat_wvel_sd              =   1.6739754411800E-05
(PID.TID 0000.0001) %MON dynstat_wvel_del2            =   6.4528618725678E-08
(PID.TID 0000.0001) %MON dynstat_theta_max            =   1.2000000000000E+00
(PID.TID 0000.0001) %MON dynstat_theta_min            =  -1.0000000000000E+00
(PID.TID 0000.0001) %MON dynstat_theta_mean           =   5.6894930712192E-01
(PID.TID 0000.0001) %MON dynstat_theta_sd             =   8.6850184762219E-01
(PID.TID 0000.0001) %MON dynstat_theta_del2           =   1.3792932380324E-06
(PID.TID 0000.0001) %MON dynstat_salt_max             =   3.4700000000000E+01
(PID.TID 0000.0001) %MON dynstat_salt_min             =   3.4000000000000E+01
(PID.TID 0000.0001) %MON dynstat_salt_mean            =   3.4499193881744E+01
(PID.TID 0000.0001) %MON dynstat_salt_sd              =   2.7633608216594E-01
(PID.TID 0000.0001) %MON dynstat_salt_del2            =   5.2911477076216E-07
(PID.TID 0000.0001) %MON advcfl_uvel_max              =   8.8385983193255E-04
(PID.TID 0000.0001) %MON advcfl_vvel_max              =   7.2673960140266E-04
(PID.TID 0000.0001) %MON advcfl_wvel_max              =   1.6591880652416E-03
(PID.TID 0000.0001) %MON advcfl_W_hf_max              =   1.6591880652416E-03
(PID.TID 0000.0001) %MON pe_b_mean                    =  -8.3002568396587E-01
(PID.TID 0000.0001) %MON ke_max                       =   2.3365094940292E-05
(PID.TID 0000.0001) %MON ke_mean                      =   5.9558007091556E-08
(PID.TID 0000.0001) %MON ke_vol                       =   4.2725043952032E+12
(PID.TID 0000.0001) // =======================================================
(PID.TID 0000.0001) // End MONITOR dynamic field statistics
(PID.TID 0000.0001) // =======================================================
(PID.TID 0000.0001) // =======================================================
(PID.TID 0000.0001) // Begin OBCS MONITOR field statistics
(PID.TID 0000.0001) // =======================================================
(PID.TID 0000.0001) %MON obc_N_vVel_max               =   1.4737595191215E-05
(PID.TID 0000.0001) %MON obc_N_vVel_min               =   1.4737595191215E-05
(PID.TID 0000.0001) %MON obc_N_vVel_mean              =   1.4737595191215E-05
(PID.TID 0000.0001) %MON obc_N_vVel_sd                =  -2.5849394142282E-25
(PID.TID 0000.0001) %MON obc_N_vVel_Int               =   9.7268128262021E+02
(PID.TID 0000.0001) // =======================================================
(PID.TID 0000.0001) // End OBCS MONITOR field statistics
(PID.TID 0000.0001) // =======================================================
 cg2d: Sum(rhs),rhsMax =   4.50919359409944E+00  2.99907642475336E+02
(PID.TID 0000.0001)      cg2d_init_res =   5.86678205923539E-06
(PID.TID 0000.0001)      cg2d_iters(min,last) =      -1      78
(PID.TID 0000.0001)      cg2d_last_res =   8.21477569423653E-12
(PID.TID 0000.0001) // =======================================================
(PID.TID 0000.0001) // Begin MONITOR dynamic field statistics
(PID.TID 0000.0001) // =======================================================
(PID.TID 0000.0001) %MON time_tsnumber                =                   700
(PID.TID 0000.0001) %MON time_secondsf                =   7.0000000000000E+04
(PID.TID 0000.0001) %MON dynstat_eta_max              =   5.7978414656199E+00
(PID.TID 0000.0001) %MON dynstat_eta_min              =  -1.4192236621838E+01
(PID.TID 0000.0001) %MON dynstat_eta_mean             =  -2.5043363338357E+00
(PID.TID 0000.0001) %MON dynstat_eta_sd               =   4.9500389027999E+00
(PID.TID 0000.0001) %MON dynstat_eta_del2             =   2.0714344203831E-01
(PID.TID 0000.0001) %MON dynstat_uvel_max             =   1.9881610004120E-03
(PID.TID 0000.0001) %MON dynstat_uvel_min             =  -8.8651368869002E-03
(PID.TID 0000.0001) %MON dynstat_uvel_mean            =  -1.1744532709921E-07
(PID.TID 0000.0001) %MON dynstat_uvel_sd              =   2.8314181468056E-04
(PID.TID 0000.0001) %MON dynstat_uvel_del2            =   4.8149305047038E-07
(PID.TID 0000.0001) %MON dynstat_vvel_max             =   7.2889063988546E-03
(PID.TID 0000.0001) %MON dynstat_vvel_min             =  -3.7158806326048E-03
(PID.TID 0000.0001) %MON dynstat_vvel_mean            =   1.4974574488528E-05
(PID.TID 0000.0001) %MON dynstat_vvel_sd              =   2.0202256025494E-04
(PID.TID 0000.0001) %MON dynstat_vvel_del2            =   4.4208668266247E-07
(PID.TID 0000.0001) %MON dynstat_wvel_max             =   3.1527739870186E-04
(PID.TID 0000.0001) %MON dynstat_wvel_min             =  -3.3282033036281E-04
(PID.TID 0000.0001) %MON dynstat_wvel_mean            =   6.6373104878312E-09
(PID.TID 0000.0001) %MON dynstat_wvel_sd              =   1.7031479351646E-05
(PID.TID 0000.0001) %MON dynstat_wvel_del2            =   6.6702266253235E-08
(PID.TID 0000.0001) %MON dynstat_theta_max            =   1.2000000000000E+00
(PID.TID 0000.0001) %MON dynstat_theta_min            =  -1.0000000000000E+00
(PID.TID 0000.0001) %MON dynstat_theta_mean           =   5.6894889215630E-01
(PID.TID 0000.0001) %MON dynstat_theta_sd             =   8.6850161857733E-01
(PID.TID 0000.0001) %MON dynstat_theta_del2           =   1.3799491296589E-06
(PID.TID 0000.0001) %MON dynstat_salt_max             =   3.4700000000000E+01
(PID.TID 0000.0001) %MON dynstat_salt_min             =   3.4000000000000E+01
(PID.TID 0000.0001) %MON dynstat_salt_mean            =   3.4499193715794E+01
(PID.TID 0000.0001) %MON dynstat_salt_sd              =   2.7633599571509E-01
(PID.TID 0000.0001) %MON dynstat_salt_del2            =   5.2962269793864E-07
(PID.TID 0000.0001) %MON advcfl_uvel_max              =   8.8651368869002E-04
(PID.TID 0000.0001) %MON advcfl_vvel_max              =   7.2889063988546E-04
(PID.TID 0000.0001) %MON advcfl_wvel_max              =   1.6641016518140E-03
(PID.TID 0000.0001) %MON advcfl_W_hf_max              =   1.6641016518140E-03
(PID.TID 0000.0001) %MON pe_b_mean                    =  -8.3002930981262E-01
(PID.TID 0000.0001) %MON ke_max                       =   2.3493440260656E-05
(PID.TID 0000.0001) %MON ke_mean                      =   5.9806543620294E-08
(PID.TID 0000.0001) %MON ke_vol                       =   4.2725043186749E+12
(PID.TID 0000.0001) // =======================================================
(PID.TID 0000.0001) // End MONITOR dynamic field statistics
(PID.TID 0000.0001) // =======================================================
(PID.TID 0000.0001) // =======================================================
(PID.TID 0000.0001) // Begin OBCS MONITOR field statistics
(PID.TID 0000.0001) // =======================================================
(PID.TID 0000.0001) %MON obc_N_vVel_max               =   1.4737546069362E-05
(PID.TID 0000.0001) %MON obc_N_vVel_min               =   1.4737546069362E-05
(PID.TID 0000.0001) %MON obc_N_vVel_mean              =   1.4737546069362E-05
(PID.TID 0000.0001) %MON obc_N_vVel_sd                =   3.9349443568146E-12
(PID.TID 0000.0001) %MON obc_N_vVel_Int               =   9.7267804057787E+02
(PID.TID 0000.0001) // =======================================================
(PID.TID 0000.0001) // End OBCS MONITOR field statistics
(PID.TID 0000.0001) // =======================================================
 cg2d: Sum(rhs),rhsMax =   4.50921563245791E+00  2.99907718330566E+02
(PID.TID 0000.0001)      cg2d_init_res =   5.88808665860694E-06
(PID.TID 0000.0001)      cg2d_iters(min,last) =      -1      78
(PID.TID 0000.0001)      cg2d_last_res =   8.19150485772682E-12
(PID.TID 0000.0001) // =======================================================
(PID.TID 0000.0001) // Begin MONITOR dynamic field statistics
(PID.TID 0000.0001) // =======================================================
(PID.TID 0000.0001) %MON time_tsnumber                =                   701
(PID.TID 0000.0001) %MON time_secondsf                =   7.0100000000000E+04
(PID.TID 0000.0001) %MON dynstat_eta_max              =   5.7978307213455E+00
(PID.TID 0000.0001) %MON dynstat_eta_min              =  -1.4192261250350E+01
(PID.TID 0000.0001) %MON dynstat_eta_mean             =  -2.5043492070203E+00
(PID.TID 0000.0001) %MON dynstat_eta_sd               =   4.9500432253004E+00
(PID.TID 0000.0001) %MON dynstat_eta_del2             =   2.0714345509475E-01
(PID.TID 0000.0001) %MON dynstat_uvel_max             =   1.9941104791599E-03
(PID.TID 0000.0001) %MON dynstat_uvel_min             =  -8.8917454838047E-03
(PID.TID 0000.0001) %MON dynstat_uvel_mean            =  -1.1743505823623E-07
(PID.TID 0000.0001) %MON dynstat_uvel_sd              =   2.8373243773081E-04
(PID.TID 0000.0001) %MON dynstat_uvel_del2            =   4.8238708070449E-07
(PID.TID 0000.0001) %MON dynstat_vvel_max             =   7.3104634055947E-03
(PID.TID 0000.0001) %MON dynstat_vvel_min             =  -3.7247875636544E-03
(PID.TID 0000.0001) %MON dynstat_vvel_mean            =   1.4974374680317E-05
(PID.TID 0000.0001) %MON dynstat_vvel_sd              =   2.0245602799410E-04
(PID.TID 0000.0001) %MON dynstat_vvel_del2            =   4.4394098374931E-07
(PID.TID 0000.0001) %MON dynstat_wvel_max             =   3.1637895236618E-04
(PID.TID 0000.0001) %MON dynstat_wvel_min             =  -3.3380561948908E-04
(PID.TID 0000.0001) %MON dynstat_wvel_mean            =   6.6365234421492E-09
(PID.TID 0000.0001) %MON dynstat_wvel_sd              =   1.7342190103282E-05
(PID.TID 0000.0001) %MON dynstat_wvel_del2            =   6.9056438158458E-08
(PID.TID 0000.0001) %MON dynstat_theta_max            =   1.2000000000000E+00
(PID.TID 0000.0001) %MON dynstat_theta_min            =  -1.0000000000000E+00
(PID.TID 0000.0001) %MON dynstat_theta_mean           =   5.6894847650353E-01
(PID.TID 0000.0001) %MON dynstat_theta_sd             =   8.6850138913701E-01
(PID.TID 0000.0001) %MON dynstat_theta_del2           =   1.3806082019251E-06
(PID.TID 0000.0001) %MON dynstat_salt_max             =   3.4700000000000E+01
(PID.TID 0000.0001) %MON dynstat_salt_min             =   3.4000000000000E+01
(PID.TID 0000.0001) %MON dynstat_salt_mean            =   3.4499193549576E+01
(PID.TID 0000.0001) %MON dynstat_salt_sd              =   2.7633590911018E-01
(PID.TID 0000.0001) %MON dynstat_salt_del2            =   5.3013243605493E-07
(PID.TID 0000.0001) %MON advcfl_uvel_max              =   8.8917454838047E-04
(PID.TID 0000.0001) %MON advcfl_vvel_max              =   7.3104634055947E-04
(PID.TID 0000.0001) %MON advcfl_wvel_max              =   1.6690280974454E-03
(PID.TID 0000.0001) %MON advcfl_W_hf_max              =   1.6690280974454E-03
(PID.TID 0000.0001) %MON pe_b_mean                    =  -8.3003293379430E-01
(PID.TID 0000.0001) %MON ke_max                       =   2.3622432099379E-05
(PID.TID 0000.0001) %MON ke_mean                      =   6.0058285102878E-08
(PID.TID 0000.0001) %MON ke_vol                       =   4.2725042421770E+12
(PID.TID 0000.0001) // =======================================================
(PID.TID 0000.0001) // End MONITOR dynamic field statistics
(PID.TID 0000.0001) // =======================================================
(PID.TID 0000.0001) // =======================================================
(PID.TID 0000.0001) // Begin OBCS MONITOR field statistics
(PID.TID 0000.0001) // =======================================================
(PID.TID 0000.0001) %MON obc_N_vVel_max               =   1.4737416445540E-05
(PID.TID 0000.0001) %MON obc_N_vVel_min               =   1.4737416445539E-05
(PID.TID 0000.0001) %MON obc_N_vVel_mean              =   1.4737416445539E-05
(PID.TID 0000.0001) %MON obc_N_vVel_sd                =   4.7883622047840E-12
(PID.TID 0000.0001) %MON obc_N_vVel_Int               =   9.7266948540559E+02
(PID.TID 0000.0001) // =======================================================
(PID.TID 0000.0001) // End OBCS MONITOR field statistics
(PID.TID 0000.0001) // =======================================================
 cg2d: Sum(rhs),rhsMax =   4.50923766099507E+00  2.99907794197004E+02
(PID.TID 0000.0001)      cg2d_init_res =   5.91073018946146E-06
(PID.TID 0000.0001)      cg2d_iters(min,last) =      -1      78
(PID.TID 0000.0001)      cg2d_last_res =   8.17181760903158E-12
(PID.TID 0000.0001) // =======================================================
(PID.TID 0000.0001) // Begin MONITOR dynamic field statistics
(PID.TID 0000.0001) // =======================================================
(PID.TID 0000.0001) %MON time_tsnumber                =                   702
(PID.TID 0000.0001) %MON time_secondsf                =   7.0200000000000E+04
(PID.TID 0000.0001) %MON dynstat_eta_max              =   5.7978199988022E+00
(PID.TID 0000.0001) %MON dynstat_eta_min              =  -1.4192285877884E+01
(PID.TID 0000.0001) %MON dynstat_eta_mean             =  -2.5043620748502E+00
(PID.TID 0000.0001) %MON dynstat_eta_sd               =   4.9500475463800E+00
(PID.TID 0000.0001) %MON dynstat_eta_del2             =   2.0714346818001E-01
(PID.TID 0000.0001) %MON dynstat_uvel_max             =   2.0000743136492E-03
(PID.TID 0000.0001) %MON dynstat_uvel_min             =  -8.9184242166986E-03
(PID.TID 0000.0001) %MON dynstat_uvel_mean            =  -1.1742619299571E-07
(PID.TID 0000.0001) %MON dynstat_uvel_sd              =   2.8432576094505E-04
(PID.TID 0000.0001) %MON dynstat_uvel_del2            =   4.8328188079190E-07
(PID.TID 0000.0001) %MON dynstat_vvel_max             =   7.3320671027921E-03
(PID.TID 0000.0001) %MON dynstat_vvel_min             =  -3.7337013119076E-03
(PID.TID 0000.0001) %MON dynstat_vvel_mean            =   1.4974094561210E-05
(PID.TID 0000.0001) %MON dynstat_vvel_sd              =   2.0289106015113E-04
(PID.TID 0000.0001) %MON dynstat_vvel_del2            =   4.4577792987816E-07
(PID.TID 0000.0001) %MON dynstat_wvel_max             =   3.1748320442362E-04
(PID.TID 0000.0001) %MON dynstat_wvel_min             =  -3.3479348959486E-04
(PID.TID 0000.0001) %MON dynstat_wvel_mean            =   6.6356963149204E-09
(PID.TID 0000.0001) %MON dynstat_wvel_sd              =   1.7645268824103E-05
(PID.TID 0000.0001) %MON dynstat_wvel_del2            =   7.1384085045180E-08
(PID.TID 0000.0001) %MON dynstat_theta_max            =   1.2000000000000E+00
(PID.TID 0000.0001) %MON dynstat_theta_min            =  -1.0000000000000E+00
(PID.TID 0000.0001) %MON dynstat_theta_mean           =   5.6894806013333E-01
(PID.TID 0000.0001) %MON dynstat_theta_sd             =   8.6850115933399E-01
(PID.TID 0000.0001) %MON dynstat_theta_del2           =   1.3813706751187E-06
(PID.TID 0000.0001) %MON dynstat_salt_max             =   3.4700000000000E+01
(PID.TID 0000.0001) %MON dynstat_salt_min             =   3.4000000000000E+01
(PID.TID 0000.0001) %MON dynstat_salt_mean            =   3.4499193383078E+01
(PID.TID 0000.0001) %MON dynstat_salt_sd              =   2.7633582236140E-01
(PID.TID 0000.0001) %MON dynstat_salt_del2            =   5.3067040604189E-07
(PID.TID 0000.0001) %MON advcfl_uvel_max              =   8.9184242166986E-04
(PID.TID 0000.0001) %MON advcfl_vvel_max              =   7.3320671027921E-04
(PID.TID 0000.0001) %MON advcfl_wvel_max              =   1.6739674479743E-03
(PID.TID 0000.0001) %MON advcfl_W_hf_max              =   1.6739674479743E-03
(PID.TID 0000.0001) %MON pe_b_mean                    =  -8.3003655588273E-01
(PID.TID 0000.0001) %MON ke_max                       =   2.3752073141916E-05
(PID.TID 0000.0001) %MON ke_mean                      =   6.0311625083974E-08
(PID.TID 0000.0001) %MON ke_vol                       =   4.2725041657103E+12
(PID.TID 0000.0001) // =======================================================
(PID.TID 0000.0001) // End MONITOR dynamic field statistics
(PID.TID 0000.0001) // =======================================================
(PID.TID 0000.0001) // =======================================================
(PID.TID 0000.0001) // Begin OBCS MONITOR field statistics
(PID.TID 0000.0001) // =======================================================
(PID.TID 0000.0001) %MON obc_N_vVel_max               =   1.4737213910445E-05
(PID.TID 0000.0001) %MON obc_N_vVel_min               =   1.4737213910444E-05
(PID.TID 0000.0001) %MON obc_N_vVel_mean              =   1.4737213910445E-05
(PID.TID 0000.0001) %MON obc_N_vVel_sd                =  -1.0805046751474E-23
(PID.TID 0000.0001) %MON obc_N_vVel_Int               =   9.7265611808934E+02
(PID.TID 0000.0001) // =======================================================
(PID.TID 0000.0001) // End OBCS MONITOR field statistics
(PID.TID 0000.0001) // =======================================================
 cg2d: Sum(rhs),rhsMax =   4.50925967953400E+00  2.99907870074994E+02
(PID.TID 0000.0001)      cg2d_init_res =   5.93290224896649E-06
(PID.TID 0000.0001)      cg2d_iters(min,last) =      -1      78
(PID.TID 0000.0001)      cg2d_last_res =   8.15673194735164E-12
(PID.TID 0000.0001) // =======================================================
(PID.TID 0000.0001) // Begin MONITOR dynamic field statistics
(PID.TID 0000.0001) // =======================================================
(PID.TID 0000.0001) %MON time_tsnumber                =                   703
(PID.TID 0000.0001) %MON time_secondsf                =   7.0300000000000E+04
(PID.TID 0000.0001) %MON dynstat_eta_max              =   5.7978092980994E+00
(PID.TID 0000.0001) %MON dynstat_eta_min              =  -1.4192310504299E+01
(PID.TID 0000.0001) %MON dynstat_eta_mean             =  -2.5043749372298E+00
(PID.TID 0000.0001) %MON dynstat_eta_sd               =   4.9500518660201E+00
(PID.TID 0000.0001) %MON dynstat_eta_del2             =   2.0714348129429E-01
(PID.TID 0000.0001) %MON dynstat_uvel_max             =   2.0060525365651E-03
(PID.TID 0000.0001) %MON dynstat_uvel_min             =  -8.9451731913890E-03
(PID.TID 0000.0001) %MON dynstat_uvel_mean            =  -1.1741889765854E-07
(PID.TID 0000.0001) %MON dynstat_uvel_sd              =   2.8492181549249E-04
(PID.TID 0000.0001) %MON dynstat_uvel_del2            =   4.8417770241704E-07
(PID.TID 0000.0001) %MON dynstat_vvel_max             =   7.3537175591456E-03
(PID.TID 0000.0001) %MON dynstat_vvel_min             =  -3.7426218992254E-03
(PID.TID 0000.0001) %MON dynstat_vvel_mean            =   1.4973748103509E-05
(PID.TID 0000.0001) %MON dynstat_vvel_sd              =   2.0331981480397E-04
(PID.TID 0000.0001) %MON dynstat_vvel_del2            =   4.4750321310055E-07
(PID.TID 0000.0001) %MON dynstat_wvel_max             =   3.1859016156205E-04
(PID.TID 0000.0001) %MON dynstat_wvel_min             =  -3.3578394996510E-04
(PID.TID 0000.0001) %MON dynstat_wvel_mean            =   6.6348677300231E-09
(PID.TID 0000.0001) %MON dynstat_wvel_sd              =   1.7916392814784E-05
(PID.TID 0000.0001) %MON dynstat_wvel_del2            =   7.3501697638908E-08
(PID.TID 0000.0001) %MON dynstat_theta_max            =   1.2000000000000E+00
(PID.TID 0000.0001) %MON dynstat_theta_min            =  -1.0000000000000E+00
(PID.TID 0000.0001) %MON dynstat_theta_mean           =   5.6894764301802E-01
(PID.TID 0000.0001) %MON dynstat_theta_sd             =   8.6850092920037E-01
(PID.TID 0000.0001) %MON dynstat_theta_del2           =   1.3823319393793E-06
(PID.TID 0000.0001) %MON dynstat_salt_max             =   3.4700000000000E+01
(PID.TID 0000.0001) %MON dynstat_salt_min             =   3.4000000000000E+01
(PID.TID 0000.0001) %MON dynstat_salt_mean            =   3.4499193216293E+01
(PID.TID 0000.0001) %MON dynstat_salt_sd              =   2.7633573547905E-01
(PID.TID 0000.0001) %MON dynstat_salt_del2            =   5.3126168573713E-07
(PID.TID 0000.0001) %MON advcfl_uvel_max              =   8.9451731913890E-04
(PID.TID 0000.0001) %MON advcfl_vvel_max              =   7.3537175591456E-04
(PID.TID 0000.0001) %MON advcfl_wvel_max              =   1.6789197498255E-03
(PID.TID 0000.0001) %MON advcfl_W_hf_max              =   1.6789197498255E-03
(PID.TID 0000.0001) %MON pe_b_mean                    =  -8.3004017605372E-01
(PID.TID 0000.0001) %MON ke_max                       =   2.3882366080481E-05
(PID.TID 0000.0001) %MON ke_mean                      =   6.0564984920337E-08
(PID.TID 0000.0001) %MON ke_vol                       =   4.2725040892754E+12
(PID.TID 0000.0001) // =======================================================
(PID.TID 0000.0001) // End MONITOR dynamic field statistics
(PID.TID 0000.0001) // =======================================================
(PID.TID 0000.0001) // =======================================================
(PID.TID 0000.0001) // Begin OBCS MONITOR field statistics
(PID.TID 0000.0001) // =======================================================
(PID.TID 0000.0001) %MON obc_N_vVel_max               =   1.4736948418215E-05
(PID.TID 0000.0001) %MON obc_N_vVel_min               =   1.4736948418215E-05
(PID.TID 0000.0001) %MON obc_N_vVel_mean              =   1.4736948418215E-05
(PID.TID 0000.0001) %MON obc_N_vVel_sd                =   3.3801526904696E-12
(PID.TID 0000.0001) %MON obc_N_vVel_Int               =   9.7263859560219E+02
(PID.TID 0000.0001) // =======================================================
(PID.TID 0000.0001) // End OBCS MONITOR field statistics
(PID.TID 0000.0001) // =======================================================
 cg2d: Sum(rhs),rhsMax =   4.50928168792141E+00  2.99907945964849E+02
(PID.TID 0000.0001)      cg2d_init_res =   5.95286625437551E-06
(PID.TID 0000.0001)      cg2d_iters(min,last) =      -1      78
(PID.TID 0000.0001)      cg2d_last_res =   8.14592545899555E-12
(PID.TID 0000.0001) // =======================================================
(PID.TID 0000.0001) // Begin MONITOR dynamic field statistics
(PID.TID 0000.0001) // =======================================================
(PID.TID 0000.0001) %MON time_tsnumber                =                   704
(PID.TID 0000.0001) %MON time_secondsf                =   7.0400000000000E+04
(PID.TID 0000.0001) %MON dynstat_eta_max              =   5.7977986193154E+00
(PID.TID 0000.0001) %MON dynstat_eta_min              =  -1.4192335129482E+01
(PID.TID 0000.0001) %MON dynstat_eta_mean             =  -2.5043877940767E+00
(PID.TID 0000.0001) %MON dynstat_eta_sd               =   4.9500561842082E+00
(PID.TID 0000.0001) %MON dynstat_eta_del2             =   2.0714349443788E-01
(PID.TID 0000.0001) %MON dynstat_uvel_max             =   2.0120451803187E-03
(PID.TID 0000.0001) %MON dynstat_uvel_min             =  -8.9719925127874E-03
(PID.TID 0000.0001) %MON dynstat_uvel_mean            =  -1.1741323741572E-07
(PID.TID 0000.0001) %MON dynstat_uvel_sd              =   2.8552063433300E-04
(PID.TID 0000.0001) %MON dynstat_uvel_del2            =   4.8507479135146E-07
(PID.TID 0000.0001) %MON dynstat_vvel_max             =   7.3754148435352E-03
(PID.TID 0000.0001) %MON dynstat_vvel_min             =  -3.7515493474807E-03
(PID.TID 0000.0001) %MON dynstat_vvel_mean            =   1.4973351341209E-05
(PID.TID 0000.0001) %MON dynstat_vvel_sd              =   2.0373526405208E-04
(PID.TID 0000.0001) %MON dynstat_vvel_del2            =   4.4903343573100E-07
(PID.TID 0000.0001) %MON dynstat_wvel_max             =   3.1969983034901E-04
(PID.TID 0000.0001) %MON dynstat_wvel_min             =  -3.3677700983833E-04
(PID.TID 0000.0001) %MON dynstat_wvel_mean            =   6.6340758386651E-09
(PID.TID 0000.0001) %MON dynstat_wvel_sd              =   1.8135028432303E-05
(PID.TID 0000.0001) %MON dynstat_wvel_del2            =   7.5257670411231E-08
(PID.TID 0000.0001) %MON dynstat_theta_max            =   1.2000000000000E+00
(PID.TID 0000.0001) %MON dynstat_theta_min            =  -1.0000000000000E+00
(PID.TID 0000.0001) %MON dynstat_theta_mean           =   5.6894722513272E-01
(PID.TID 0000.0001) %MON dynstat_theta_sd             =   8.6850069876284E-01
(PID.TID 0000.0001) %MON dynstat_theta_del2           =   1.3835746188107E-06
(PID.TID 0000.0001) %MON dynstat_salt_max             =   3.4700000000000E+01
(PID.TID 0000.0001) %MON dynstat_salt_min             =   3.4000000000000E+01
(PID.TID 0000.0001) %MON dynstat_salt_mean            =   3.4499193049212E+01
(PID.TID 0000.0001) %MON dynstat_salt_sd              =   2.7633564847121E-01
(PID.TID 0000.0001) %MON dynstat_salt_del2            =   5.3192796056767E-07
(PID.TID 0000.0001) %MON advcfl_uvel_max              =   8.9719925127874E-04
(PID.TID 0000.0001) %MON advcfl_vvel_max              =   7.3754148435352E-04
(PID.TID 0000.0001) %MON advcfl_wvel_max              =   1.6838850491916E-03
(PID.TID 0000.0001) %MON advcfl_W_hf_max              =   1.6838850491916E-03
(PID.TID 0000.0001) %MON pe_b_mean                    =  -8.3004379428717E-01
(PID.TID 0000.0001) %MON ke_max                       =   2.4013313613617E-05
(PID.TID 0000.0001) %MON ke_mean                      =   6.0816939058851E-08
(PID.TID 0000.0001) %MON ke_vol                       =   4.2725040128729E+12
(PID.TID 0000.0001) // =======================================================
(PID.TID 0000.0001) // End MONITOR dynamic field statistics
(PID.TID 0000.0001) // =======================================================
(PID.TID 0000.0001) // =======================================================
(PID.TID 0000.0001) // Begin OBCS MONITOR field statistics
(PID.TID 0000.0001) // =======================================================
(PID.TID 0000.0001) %MON obc_N_vVel_max               =   1.4736631967075E-05
(PID.TID 0000.0001) %MON obc_N_vVel_min               =   1.4736631967074E-05
(PID.TID 0000.0001) %MON obc_N_vVel_mean              =   1.4736631967074E-05
(PID.TID 0000.0001) %MON obc_N_vVel_sd                =   1.2761315884202E-12
(PID.TID 0000.0001) %MON obc_N_vVel_Int               =   9.7261770982691E+02
(PID.TID 0000.0001) // =======================================================
(PID.TID 0000.0001) // End OBCS MONITOR field statistics
(PID.TID 0000.0001) // =======================================================
 cg2d: Sum(rhs),rhsMax =   4.50930368603111E+00  2.99908021866797E+02
(PID.TID 0000.0001)      cg2d_init_res =   5.96910055701080E-06
(PID.TID 0000.0001)      cg2d_iters(min,last) =      -1      78
(PID.TID 0000.0001)      cg2d_last_res =   8.13839694191774E-12
(PID.TID 0000.0001) // =======================================================
(PID.TID 0000.0001) // Begin MONITOR dynamic field statistics
(PID.TID 0000.0001) // =======================================================
(PID.TID 0000.0001) %MON time_tsnumber                =                   705
(PID.TID 0000.0001) %MON time_secondsf                =   7.0500000000000E+04
(PID.TID 0000.0001) %MON dynstat_eta_max              =   5.7977879624986E+00
(PID.TID 0000.0001) %MON dynstat_eta_min              =  -1.4192359753351E+01
(PID.TID 0000.0001) %MON dynstat_eta_mean             =  -2.5044006453227E+00
(PID.TID 0000.0001) %MON dynstat_eta_sd               =   4.9500605009384E+00
(PID.TID 0000.0001) %MON dynstat_eta_del2             =   2.0714350761111E-01
(PID.TID 0000.0001) %MON dynstat_uvel_max             =   2.0180522771938E-03
(PID.TID 0000.0001) %MON dynstat_uvel_min             =  -8.9988822848035E-03
(PID.TID 0000.0001) %MON dynstat_uvel_mean            =  -1.1740919111002E-07
(PID.TID 0000.0001) %MON dynstat_uvel_sd              =   2.8612225112206E-04
(PID.TID 0000.0001) %MON dynstat_uvel_del2            =   4.8597337575692E-07
(PID.TID 0000.0001) %MON dynstat_vvel_max             =   7.3971590248822E-03
(PID.TID 0000.0001) %MON dynstat_vvel_min             =  -3.7604836791694E-03
(PID.TID 0000.0001) %MON dynstat_vvel_mean            =   1.4972921797539E-05
(PID.TID 0000.0001) %MON dynstat_vvel_sd              =   2.0413172903230E-04
(PID.TID 0000.0001) %MON dynstat_vvel_del2            =   4.5030228095742E-07
(PID.TID 0000.0001) %MON dynstat_wvel_max             =   3.2081221715090E-04
(PID.TID 0000.0001) %MON dynstat_wvel_min             =  -3.3777267852959E-04
(PID.TID 0000.0001) %MON dynstat_wvel_mean            =   6.6333566423002E-09
(PID.TID 0000.0001) %MON dynstat_wvel_sd              =   1.8285401746903E-05
(PID.TID 0000.0001) %MON dynstat_wvel_del2            =   7.6535831043833E-08
(PID.TID 0000.0001) %MON dynstat_theta_max            =   1.2000000000000E+00
(PID.TID 0000.0001) %MON dynstat_theta_min            =  -1.0000000000000E+00
(PID.TID 0000.0001) %MON dynstat_theta_mean           =   5.6894680645573E-01
(PID.TID 0000.0001) %MON dynstat_theta_sd             =   8.6850046803651E-01
(PID.TID 0000.0001) %MON dynstat_theta_del2           =   1.3851615464579E-06
(PID.TID 0000.0001) %MON dynstat_salt_max             =   3.4700000000000E+01
(PID.TID 0000.0001) %MON dynstat_salt_min             =   3.4000000000000E+01
(PID.TID 0000.0001) %MON dynstat_salt_mean            =   3.4499192881827E+01
(PID.TID 0000.0001) %MON dynstat_salt_sd              =   2.7633556134279E-01
(PID.TID 0000.0001) %MON dynstat_salt_del2            =   5.3268569907256E-07
(PID.TID 0000.0001) %MON advcfl_uvel_max              =   8.9988822848035E-04
(PID.TID 0000.0001) %MON advcfl_vvel_max              =   7.3971590248822E-04
(PID.TID 0000.0001) %MON advcfl_wvel_max              =   1.6888633926479E-03
(PID.TID 0000.0001) %MON advcfl_W_hf_max              =   1.6888633926479E-03
(PID.TID 0000.0001) %MON pe_b_mean                    =  -8.3004741056719E-01
(PID.TID 0000.0001) %MON ke_max                       =   2.4144918444035E-05
(PID.TID 0000.0001) %MON ke_mean                      =   6.1066326334750E-08
(PID.TID 0000.0001) %MON ke_vol                       =   4.2725039365032E+12
(PID.TID 0000.0001) // =======================================================
(PID.TID 0000.0001) // End MONITOR dynamic field statistics
(PID.TID 0000.0001) // =======================================================
(PID.TID 0000.0001) // =======================================================
(PID.TID 0000.0001) // Begin OBCS MONITOR field statistics
(PID.TID 0000.0001) // =======================================================
(PID.TID 0000.0001) %MON obc_N_vVel_max               =   1.4736278163420E-05
(PID.TID 0000.0001) %MON obc_N_vVel_min               =   1.4736278163420E-05
(PID.TID 0000.0001) %MON obc_N_vVel_mean              =   1.4736278163420E-05
(PID.TID 0000.0001) %MON obc_N_vVel_sd                =  -1.5509636485369E-25
(PID.TID 0000.0001) %MON obc_N_vVel_Int               =   9.7259435878572E+02
(PID.TID 0000.0001) // =======================================================
(PID.TID 0000.0001) // End OBCS MONITOR field statistics
(PID.TID 0000.0001) // =======================================================
 cg2d: Sum(rhs),rhsMax =   4.50932567376742E+00  2.99908097780958E+02
(PID.TID 0000.0001)      cg2d_init_res =   5.98040248111078E-06
(PID.TID 0000.0001)      cg2d_iters(min,last) =      -1      78
(PID.TID 0000.0001)      cg2d_last_res =   8.20536243105078E-12
(PID.TID 0000.0001) // =======================================================
(PID.TID 0000.0001) // Begin MONITOR dynamic field statistics
(PID.TID 0000.0001) // =======================================================
(PID.TID 0000.0001) %MON time_tsnumber                =                   706
(PID.TID 0000.0001) %MON time_secondsf                =   7.0600000000000E+04
(PID.TID 0000.0001) %MON dynstat_eta_max              =   5.7977773276790E+00
(PID.TID 0000.0001) %MON dynstat_eta_min              =  -1.4192384375856E+01
(PID.TID 0000.0001) %MON dynstat_eta_mean             =  -2.5044134909156E+00
(PID.TID 0000.0001) %MON dynstat_eta_sd               =   4.9500648162093E+00
(PID.TID 0000.0001) %MON dynstat_eta_del2             =   2.0714352081428E-01
(PID.TID 0000.0001) %MON dynstat_uvel_max             =   2.0240738591362E-03
(PID.TID 0000.0001) %MON dynstat_uvel_min             =  -9.0258426099084E-03
(PID.TID 0000.0001) %MON dynstat_uvel_mean            =  -1.1740666105552E-07
(PID.TID 0000.0001) %MON dynstat_uvel_sd              =   2.8672669925123E-04
(PID.TID 0000.0001) %MON dynstat_uvel_del2            =   4.8687365767916E-07
(PID.TID 0000.0001) %MON dynstat_vvel_max             =   7.4189501457584E-03
(PID.TID 0000.0001) %MON dynstat_vvel_min             =  -3.7694249196809E-03
(PID.TID 0000.0001) %MON dynstat_vvel_mean            =   1.4972477873371E-05
(PID.TID 0000.0001) %MON dynstat_vvel_sd              =   2.0450529682775E-04
(PID.TID 0000.0001) %MON dynstat_vvel_del2            =   4.5126519735060E-07
(PID.TID 0000.0001) %MON dynstat_wvel_max             =   3.2192734474106E-04
(PID.TID 0000.0001) %MON dynstat_wvel_min             =  -3.3877096537893E-04
(PID.TID 0000.0001) %MON dynstat_wvel_mean            =   6.6327432296230E-09
(PID.TID 0000.0001) %MON dynstat_wvel_sd              =   1.8357066339313E-05
(PID.TID 0000.0001) %MON dynstat_wvel_del2            =   7.7256419526268E-08
(PID.TID 0000.0001) %MON dynstat_theta_max            =   1.2000000000000E+00
(PID.TID 0000.0001) %MON dynstat_theta_min            =  -1.0000000000000E+00
(PID.TID 0000.0001) %MON dynstat_theta_mean           =   5.6894638696904E-01
(PID.TID 0000.0001) %MON dynstat_theta_sd             =   8.6850023703567E-01
(PID.TID 0000.0001) %MON dynstat_theta_del2           =   1.3871303478022E-06
(PID.TID 0000.0001) %MON dynstat_salt_max             =   3.4700000000000E+01
(PID.TID 0000.0001) %MON dynstat_salt_min             =   3.4000000000000E+01
(PID.TID 0000.0001) %MON dynstat_salt_mean            =   3.4499192714133E+01
(PID.TID 0000.0001) %MON dynstat_salt_sd              =   2.7633547409830E-01
(PID.TID 0000.0001) %MON dynstat_salt_del2            =   5.3354473320856E-07
(PID.TID 0000.0001) %MON advcfl_uvel_max              =   9.0258426099084E-04
(PID.TID 0000.0001) %MON advcfl_vvel_max              =   7.4189501457584E-04
(PID.TID 0000.0001) %MON advcfl_wvel_max              =   1.6938548268947E-03
(PID.TID 0000.0001) %MON advcfl_W_hf_max              =   1.6938548268947E-03
(PID.TID 0000.0001) %MON pe_b_mean                    =  -8.3005102488227E-01
(PID.TID 0000.0001) %MON ke_max                       =   2.4277183274890E-05
(PID.TID 0000.0001) %MON ke_mean                      =   6.1312338628871E-08
(PID.TID 0000.0001) %MON ke_vol                       =   4.2725038601668E+12
(PID.TID 0000.0001) // =======================================================
(PID.TID 0000.0001) // End MONITOR dynamic field statistics
(PID.TID 0000.0001) // =======================================================
(PID.TID 0000.0001) // =======================================================
(PID.TID 0000.0001) // Begin OBCS MONITOR field statistics
(PID.TID 0000.0001) // =======================================================
(PID.TID 0000.0001) %MON obc_N_vVel_max               =   1.4735901715045E-05
(PID.TID 0000.0001) %MON obc_N_vVel_min               =   1.4735901715045E-05
(PID.TID 0000.0001) %MON obc_N_vVel_mean              =   1.4735901715045E-05
(PID.TID 0000.0001) %MON obc_N_vVel_sd                =  -8.0650109723920E-24
(PID.TID 0000.0001) %MON obc_N_vVel_Int               =   9.7256951319296E+02
(PID.TID 0000.0001) // =======================================================
(PID.TID 0000.0001) // End OBCS MONITOR field statistics
(PID.TID 0000.0001) // =======================================================
 cg2d: Sum(rhs),rhsMax =   4.50934765106780E+00  2.99908173707252E+02
(PID.TID 0000.0001)      cg2d_init_res =   5.98597416059309E-06
(PID.TID 0000.0001)      cg2d_iters(min,last) =      -1      78
(PID.TID 0000.0001)      cg2d_last_res =   8.17130460790605E-12
(PID.TID 0000.0001) // =======================================================
(PID.TID 0000.0001) // Begin MONITOR dynamic field statistics
(PID.TID 0000.0001) // =======================================================
(PID.TID 0000.0001) %MON time_tsnumber                =                   707
(PID.TID 0000.0001) %MON time_secondsf                =   7.0700000000000E+04
(PID.TID 0000.0001) %MON dynstat_eta_max              =   5.7977667147739E+00
(PID.TID 0000.0001) %MON dynstat_eta_min              =  -1.4192408997072E+01
(PID.TID 0000.0001) %MON dynstat_eta_mean             =  -2.5044263308201E+00
(PID.TID 0000.0001) %MON dynstat_eta_sd               =   4.9500691300240E+00
(PID.TID 0000.0001) %MON dynstat_eta_del2             =   2.0714353404747E-01
(PID.TID 0000.0001) %MON dynstat_uvel_max             =   2.0301099610407E-03
(PID.TID 0000.0001) %MON dynstat_uvel_min             =  -9.0528735926902E-03
(PID.TID 0000.0001) %MON dynstat_uvel_mean            =  -1.1740544351114E-07
(PID.TID 0000.0001) %MON dynstat_uvel_sd              =   2.8733401104587E-04
(PID.TID 0000.0001) %MON dynstat_uvel_del2            =   4.8777580754306E-07
(PID.TID 0000.0001) %MON dynstat_vvel_max             =   7.4407883298337E-03
(PID.TID 0000.0001) %MON dynstat_vvel_min             =  -3.7783730681715E-03
(PID.TID 0000.0001) %MON dynstat_vvel_mean            =   1.4972038231061E-05
(PID.TID 0000.0001) %MON dynstat_vvel_sd              =   2.0485408969675E-04
(PID.TID 0000.0001) %MON dynstat_vvel_del2            =   4.5190235566219E-07
(PID.TID 0000.0001) %MON dynstat_wvel_max             =   3.2304518748115E-04
(PID.TID 0000.0001) %MON dynstat_wvel_min             =  -3.3977187923936E-04
(PID.TID 0000.0001) %MON dynstat_wvel_mean            =   6.6322651249523E-09
(PID.TID 0000.0001) %MON dynstat_wvel_sd              =   1.8345178811407E-05
(PID.TID 0000.0001) %MON dynstat_wvel_del2            =   7.7375972252284E-08
(PID.TID 0000.0001) %MON dynstat_theta_max            =   1.2000000000000E+00
(PID.TID 0000.0001) %MON dynstat_theta_min            =  -1.0000000000000E+00
(PID.TID 0000.0001) %MON dynstat_theta_mean           =   5.6894596665854E-01
(PID.TID 0000.0001) %MON dynstat_theta_sd             =   8.6850000577251E-01
(PID.TID 0000.0001) %MON dynstat_theta_del2           =   1.3894900697513E-06
(PID.TID 0000.0001) %MON dynstat_salt_max             =   3.4700000000000E+01
(PID.TID 0000.0001) %MON dynstat_salt_min             =   3.4000000000000E+01
(PID.TID 0000.0001) %MON dynstat_salt_mean            =   3.4499192546126E+01
(PID.TID 0000.0001) %MON dynstat_salt_sd              =   2.7633538674121E-01
(PID.TID 0000.0001) %MON dynstat_salt_del2            =   5.3450739420405E-07
(PID.TID 0000.0001) %MON advcfl_uvel_max              =   9.0528735926902E-04
(PID.TID 0000.0001) %MON advcfl_vvel_max              =   7.4407883298337E-04
(PID.TID 0000.0001) %MON advcfl_wvel_max              =   1.6988593961968E-03
(PID.TID 0000.0001) %MON advcfl_W_hf_max              =   1.6988593961968E-03
(PID.TID 0000.0001) %MON pe_b_mean                    =  -8.3005463722555E-01
(PID.TID 0000.0001) %MON ke_max                       =   2.4410110863679E-05
(PID.TID 0000.0001) %MON ke_mean                      =   6.1554580065542E-08
(PID.TID 0000.0001) %MON ke_vol                       =   4.2725037838640E+12
(PID.TID 0000.0001) // =======================================================
(PID.TID 0000.0001) // End MONITOR dynamic field statistics
(PID.TID 0000.0001) // =======================================================
(PID.TID 0000.0001) // =======================================================
(PID.TID 0000.0001) // Begin OBCS MONITOR field statistics
(PID.TID 0000.0001) // =======================================================
(PID.TID 0000.0001) %MON obc_N_vVel_max               =   1.4735517872310E-05
(PID.TID 0000.0001) %MON obc_N_vVel_min               =   1.4735517872309E-05
(PID.TID 0000.0001) %MON obc_N_vVel_mean              =   1.4735517872310E-05
(PID.TID 0000.0001) %MON obc_N_vVel_sd                =  -9.9520167447786E-24
(PID.TID 0000.0001) %MON obc_N_vVel_Int               =   9.7254417957244E+02
(PID.TID 0000.0001) // =======================================================
(PID.TID 0000.0001) // End OBCS MONITOR field statistics
(PID.TID 0000.0001) // =======================================================
 cg2d: Sum(rhs),rhsMax =   4.50936961789095E+00  2.99908249645749E+02
(PID.TID 0000.0001)      cg2d_init_res =   5.98549292833955E-06
(PID.TID 0000.0001)      cg2d_iters(min,last) =      -1      78
(PID.TID 0000.0001)      cg2d_last_res =   8.13157148401490E-12
(PID.TID 0000.0001) // =======================================================
(PID.TID 0000.0001) // Begin MONITOR dynamic field statistics
(PID.TID 0000.0001) // =======================================================
(PID.TID 0000.0001) %MON time_tsnumber                =                   708
(PID.TID 0000.0001) %MON time_secondsf                =   7.0800000000000E+04
(PID.TID 0000.0001) %MON dynstat_eta_max              =   5.7977561237396E+00
(PID.TID 0000.0001) %MON dynstat_eta_min              =  -1.4192433617013E+01
(PID.TID 0000.0001) %MON dynstat_eta_mean             =  -2.5044391650137E+00
(PID.TID 0000.0001) %MON dynstat_eta_sd               =   4.9500734423934E+00
(PID.TID 0000.0001) %MON dynstat_eta_del2             =   2.0714354731091E-01
(PID.TID 0000.0001) %MON dynstat_uvel_max             =   2.0361606128105E-03
(PID.TID 0000.0001) %MON dynstat_uvel_min             =  -9.0799753312965E-03
(PID.TID 0000.0001) %MON dynstat_uvel_mean            =  -1.1740530943790E-07
(PID.TID 0000.0001) %MON dynstat_uvel_sd              =   2.8794421716036E-04
(PID.TID 0000.0001) %MON dynstat_uvel_del2            =   4.8867996159033E-07
(PID.TID 0000.0001) %MON dynstat_vvel_max             =   7.4626736147967E-03
(PID.TID 0000.0001) %MON dynstat_vvel_min             =  -3.7873281719696E-03
(PID.TID 0000.0001) %MON dynstat_vvel_mean            =   1.4971621178379E-05
(PID.TID 0000.0001) %MON dynstat_vvel_sd              =   2.0517836918320E-04
(PID.TID 0000.0001) %MON dynstat_vvel_del2            =   4.5221975240648E-07
(PID.TID 0000.0001) %MON dynstat_wvel_max             =   3.2416576711104E-04
(PID.TID 0000.0001) %MON dynstat_wvel_min             =  -3.4077542990903E-04
(PID.TID 0000.0001) %MON dynstat_wvel_mean            =   6.6319453931213E-09
(PID.TID 0000.0001) %MON dynstat_wvel_sd              =   1.8250559293841E-05
(PID.TID 0000.0001) %MON dynstat_wvel_del2            =   7.6886885280270E-08
(PID.TID 0000.0001) %MON dynstat_theta_max            =   1.2000000000000E+00
(PID.TID 0000.0001) %MON dynstat_theta_min            =  -1.0000000000000E+00
(PID.TID 0000.0001) %MON dynstat_theta_mean           =   5.6894554551371E-01
(PID.TID 0000.0001) %MON dynstat_theta_sd             =   8.6849977426214E-01
(PID.TID 0000.0001) %MON dynstat_theta_del2           =   1.3922204092772E-06
(PID.TID 0000.0001) %MON dynstat_salt_max             =   3.4700000000000E+01
(PID.TID 0000.0001) %MON dynstat_salt_min             =   3.4000000000000E+01
(PID.TID 0000.0001) %MON dynstat_salt_mean            =   3.4499192377800E+01
(PID.TID 0000.0001) %MON dynstat_salt_sd              =   2.7633529927636E-01
(PID.TID 0000.0001) %MON dynstat_salt_del2            =   5.3556826146515E-07
(PID.TID 0000.0001) %MON advcfl_uvel_max              =   9.0799753312965E-04
(PID.TID 0000.0001) %MON advcfl_vvel_max              =   7.4626736147967E-04
(PID.TID 0000.0001) %MON advcfl_wvel_max              =   1.7038771495452E-03
(PID.TID 0000.0001) %MON advcfl_W_hf_max              =   1.7038771495452E-03
(PID.TID 0000.0001) %MON pe_b_mean                    =  -8.3005824759350E-01
(PID.TID 0000.0001) %MON ke_max                       =   2.4543703881836E-05
(PID.TID 0000.0001) %MON ke_mean                      =   6.1793092419647E-08
(PID.TID 0000.0001) %MON ke_vol                       =   4.2725037075949E+12
(PID.TID 0000.0001) // =======================================================
(PID.TID 0000.0001) // End MONITOR dynamic field statistics
(PID.TID 0000.0001) // =======================================================
(PID.TID 0000.0001) // =======================================================
(PID.TID 0000.0001) // Begin OBCS MONITOR field statistics
(PID.TID 0000.0001) // =======================================================
(PID.TID 0000.0001) %MON obc_N_vVel_max               =   1.4735141992380E-05
(PID.TID 0000.0001) %MON obc_N_vVel_min               =   1.4735141992380E-05
(PID.TID 0000.0001) %MON obc_N_vVel_mean              =   1.4735141992380E-05
(PID.TID 0000.0001) %MON obc_N_vVel_sd                =  -1.1399582816746E-23
(PID.TID 0000.0001) %MON obc_N_vVel_Int               =   9.7251937149709E+02
(PID.TID 0000.0001) // =======================================================
(PID.TID 0000.0001) // End OBCS MONITOR field statistics
(PID.TID 0000.0001) // =======================================================
 cg2d: Sum(rhs),rhsMax =   4.50939157423882E+00  2.99908325596001E+02
(PID.TID 0000.0001)      cg2d_init_res =   5.97909870445330E-06
(PID.TID 0000.0001)      cg2d_iters(min,last) =      -1      78
(PID.TID 0000.0001)      cg2d_last_res =   8.13658223063515E-12
(PID.TID 0000.0001) // =======================================================
(PID.TID 0000.0001) // Begin MONITOR dynamic field statistics
(PID.TID 0000.0001) // =======================================================
(PID.TID 0000.0001) %MON time_tsnumber                =                   709
(PID.TID 0000.0001) %MON time_secondsf                =   7.0900000000000E+04
(PID.TID 0000.0001) %MON dynstat_eta_max              =   5.7977455544910E+00
(PID.TID 0000.0001) %MON dynstat_eta_min              =  -1.4192458235750E+01
(PID.TID 0000.0001) %MON dynstat_eta_mean             =  -2.5044519934938E+00
(PID.TID 0000.0001) %MON dynstat_eta_sd               =   4.9500777533297E+00
(PID.TID 0000.0001) %MON dynstat_eta_del2             =   2.0714356060471E-01
(PID.TID 0000.0001) %MON dynstat_uvel_max             =   2.0422258469281E-03
(PID.TID 0000.0001) %MON dynstat_uvel_min             =  -9.1071479259028E-03
(PID.TID 0000.0001) %MON dynstat_uvel_mean            =  -1.1740602992069E-07
(PID.TID 0000.0001) %MON dynstat_uvel_sd              =   2.8855734621505E-04
(PID.TID 0000.0001) %MON dynstat_uvel_del2            =   4.8958622319484E-07
(PID.TID 0000.0001) %MON dynstat_vvel_max             =   7.4846060655216E-03
(PID.TID 0000.0001) %MON dynstat_vvel_min             =  -3.7962902494231E-03
(PID.TID 0000.0001) %MON dynstat_vvel_mean            =   1.4971244071724E-05
(PID.TID 0000.0001) %MON dynstat_vvel_sd              =   2.0548047030869E-04
(PID.TID 0000.0001) %MON dynstat_vvel_del2            =   4.5224843027713E-07
(PID.TID 0000.0001) %MON dynstat_wvel_max             =   3.2528909353570E-04
(PID.TID 0000.0001) %MON dynstat_wvel_min             =  -3.4178162655021E-04
(PID.TID 0000.0001) %MON dynstat_wvel_mean            =   6.6318034641404E-09
(PID.TID 0000.0001) %MON dynstat_wvel_sd              =   1.8079574449766E-05
(PID.TID 0000.0001) %MON dynstat_wvel_del2            =   7.5816987287296E-08
(PID.TID 0000.0001) %MON dynstat_theta_max            =   1.2000000000000E+00
(PID.TID 0000.0001) %MON dynstat_theta_min            =  -1.0000000000000E+00
(PID.TID 0000.0001) %MON dynstat_theta_mean           =   5.6894512352848E-01
(PID.TID 0000.0001) %MON dynstat_theta_sd             =   8.6849954251752E-01
(PID.TID 0000.0001) %MON dynstat_theta_del2           =   1.3952727080478E-06
(PID.TID 0000.0001) %MON dynstat_salt_max             =   3.4700000000000E+01
(PID.TID 0000.0001) %MON dynstat_salt_min             =   3.4000000000000E+01
(PID.TID 0000.0001) %MON dynstat_salt_mean            =   3.4499192209155E+01
(PID.TID 0000.0001) %MON dynstat_salt_sd              =   2.7633521170788E-01
(PID.TID 0000.0001) %MON dynstat_salt_del2            =   5.3671456456044E-07
(PID.TID 0000.0001) %MON advcfl_uvel_max              =   9.1071479259028E-04
(PID.TID 0000.0001) %MON advcfl_vvel_max              =   7.4846060655216E-04
(PID.TID 0000.0001) %MON advcfl_wvel_max              =   1.7089081327511E-03
(PID.TID 0000.0001) %MON advcfl_W_hf_max              =   1.7089081327511E-03
(PID.TID 0000.0001) %MON pe_b_mean                    =  -8.3006185598760E-01
(PID.TID 0000.0001) %MON ke_max                       =   2.4677965060808E-05
(PID.TID 0000.0001) %MON ke_mean                      =   6.2028345148669E-08
(PID.TID 0000.0001) %MON ke_vol                       =   4.2725036313598E+12
(PID.TID 0000.0001) // =======================================================
(PID.TID 0000.0001) // End MONITOR dynamic field statistics
(PID.TID 0000.0001) // =======================================================
(PID.TID 0000.0001) // =======================================================
(PID.TID 0000.0001) // Begin OBCS MONITOR field statistics
(PID.TID 0000.0001) // =======================================================
(PID.TID 0000.0001) %MON obc_N_vVel_max               =   1.4734788856992E-05
(PID.TID 0000.0001) %MON obc_N_vVel_min               =   1.4734788856992E-05
(PID.TID 0000.0001) %MON obc_N_vVel_mean              =   1.4734788856992E-05
(PID.TID 0000.0001) %MON obc_N_vVel_sd                =  -3.1277766912161E-24
(PID.TID 0000.0001) %MON obc_N_vVel_Int               =   9.7249606456150E+02
(PID.TID 0000.0001) // =======================================================
(PID.TID 0000.0001) // End OBCS MONITOR field statistics
(PID.TID 0000.0001) // =======================================================
 cg2d: Sum(rhs),rhsMax =   4.50941352014559E+00  2.99908401557371E+02
(PID.TID 0000.0001)      cg2d_init_res =   5.96740518376854E-06
(PID.TID 0000.0001)      cg2d_iters(min,last) =      -1      78
(PID.TID 0000.0001)      cg2d_last_res =   8.15189853853941E-12
(PID.TID 0000.0001) // =======================================================
(PID.TID 0000.0001) // Begin MONITOR dynamic field statistics
(PID.TID 0000.0001) // =======================================================
(PID.TID 0000.0001) %MON time_tsnumber                =                   710
(PID.TID 0000.0001) %MON time_secondsf                =   7.1000000000000E+04
(PID.TID 0000.0001) %MON dynstat_eta_max              =   5.7977350069049E+00
(PID.TID 0000.0001) %MON dynstat_eta_min              =  -1.4192482853401E+01
(PID.TID 0000.0001) %MON dynstat_eta_mean             =  -2.5044648162742E+00
(PID.TID 0000.0001) %MON dynstat_eta_sd               =   4.9500820628509E+00
(PID.TID 0000.0001) %MON dynstat_eta_del2             =   2.0714357392906E-01
(PID.TID 0000.0001) %MON dynstat_uvel_max             =   2.0483056967215E-03
(PID.TID 0000.0001) %MON dynstat_uvel_min             =  -9.1343914757438E-03
(PID.TID 0000.0001) %MON dynstat_uvel_mean            =  -1.1740739815278E-07
(PID.TID 0000.0001) %MON dynstat_uvel_sd              =   2.8917342459908E-04
(PID.TID 0000.0001) %MON dynstat_uvel_del2            =   4.9049466701475E-07
(PID.TID 0000.0001) %MON dynstat_vvel_max             =   7.5065857425742E-03
(PID.TID 0000.0001) %MON dynstat_vvel_min             =  -3.8052593192051E-03
(PID.TID 0000.0001) %MON dynstat_vvel_mean            =   1.4970922744317E-05
(PID.TID 0000.0001) %MON dynstat_vvel_sd              =   2.0576457402144E-04
(PID.TID 0000.0001) %MON dynstat_vvel_del2            =   4.5204188091667E-07
(PID.TID 0000.0001) %MON dynstat_wvel_max             =   3.2641517808560E-04
(PID.TID 0000.0001) %MON dynstat_wvel_min             =  -3.4279047829513E-04
(PID.TID 0000.0001) %MON dynstat_wvel_mean            =   6.6318528547124E-09
(PID.TID 0000.0001) %MON dynstat_wvel_sd              =   1.7843843121496E-05
(PID.TID 0000.0001) %MON dynstat_wvel_del2            =   7.4229166076440E-08
(PID.TID 0000.0001) %MON dynstat_theta_max            =   1.2000000000000E+00
(PID.TID 0000.0001) %MON dynstat_theta_min            =  -1.0000000000000E+00
(PID.TID 0000.0001) %MON dynstat_theta_mean           =   5.6894470070090E-01
(PID.TID 0000.0001) %MON dynstat_theta_sd             =   8.6849931054168E-01
(PID.TID 0000.0001) %MON dynstat_theta_del2           =   1.3985742784782E-06
(PID.TID 0000.0001) %MON dynstat_salt_max             =   3.4700000000000E+01
(PID.TID 0000.0001) %MON dynstat_salt_min             =   3.4000000000000E+01
(PID.TID 0000.0001) %MON dynstat_salt_mean            =   3.4499192040190E+01
(PID.TID 0000.0001) %MON dynstat_salt_sd              =   2.7633512403643E-01
(PID.TID 0000.0001) %MON dynstat_salt_del2            =   5.3792717913768E-07
(PID.TID 0000.0001) %MON advcfl_uvel_max              =   9.1343914757438E-04
(PID.TID 0000.0001) %MON advcfl_vvel_max              =   7.5065857425742E-04
(PID.TID 0000.0001) %MON advcfl_wvel_max              =   1.7139523914757E-03
(PID.TID 0000.0001) %MON advcfl_W_hf_max              =   1.7139523914757E-03
(PID.TID 0000.0001) %MON pe_b_mean                    =  -8.3006546241363E-01
(PID.TID 0000.0001) %MON ke_max                       =   2.4812897134688E-05
(PID.TID 0000.0001) %MON ke_mean                      =   6.2261191345888E-08
(PID.TID 0000.0001) %MON ke_vol                       =   4.2725035551586E+12
(PID.TID 0000.0001) // =======================================================
(PID.TID 0000.0001) // End MONITOR dynamic field statistics
(PID.TID 0000.0001) // =======================================================
(PID.TID 0000.0001) // =======================================================
(PID.TID 0000.0001) // Begin OBCS MONITOR field statistics
(PID.TID 0000.0001) // =======================================================
(PID.TID 0000.0001) %MON obc_N_vVel_max               =   1.4734472327382E-05
(PID.TID 0000.0001) %MON obc_N_vVel_min               =   1.4734472327381E-05
(PID.TID 0000.0001) %MON obc_N_vVel_mean              =   1.4734472327382E-05
(PID.TID 0000.0001) %MON obc_N_vVel_sd                =  -1.6336817097922E-23
(PID.TID 0000.0001) %MON obc_N_vVel_Int               =   9.7247517360719E+02
(PID.TID 0000.0001) // =======================================================
(PID.TID 0000.0001) // End OBCS MONITOR field statistics
(PID.TID 0000.0001) // =======================================================
 cg2d: Sum(rhs),rhsMax =   4.50943545566943E+00  2.99908477529063E+02
(PID.TID 0000.0001)      cg2d_init_res =   5.95143193198700E-06
(PID.TID 0000.0001)      cg2d_iters(min,last) =      -1      78
(PID.TID 0000.0001)      cg2d_last_res =   8.16615038554902E-12
(PID.TID 0000.0001) // =======================================================
(PID.TID 0000.0001) // Begin MONITOR dynamic field statistics
(PID.TID 0000.0001) // =======================================================
(PID.TID 0000.0001) %MON time_tsnumber                =                   711
(PID.TID 0000.0001) %MON time_secondsf                =   7.1100000000000E+04
(PID.TID 0000.0001) %MON dynstat_eta_max              =   5.7977244808255E+00
(PID.TID 0000.0001) %MON dynstat_eta_min              =  -1.4192507470124E+01
(PID.TID 0000.0001) %MON dynstat_eta_mean             =  -2.5044776333804E+00
(PID.TID 0000.0001) %MON dynstat_eta_sd               =   4.9500863709738E+00
(PID.TID 0000.0001) %MON dynstat_eta_del2             =   2.0714358728392E-01
(PID.TID 0000.0001) %MON dynstat_uvel_max             =   2.0544001954583E-03
(PID.TID 0000.0001) %MON dynstat_uvel_min             =  -9.1617060786788E-03
(PID.TID 0000.0001) %MON dynstat_uvel_mean            =  -1.1740921774726E-07
(PID.TID 0000.0001) %MON dynstat_uvel_sd              =   2.8979247647326E-04
(PID.TID 0000.0001) %MON dynstat_uvel_del2            =   4.9140534485420E-07
(PID.TID 0000.0001) %MON dynstat_vvel_max             =   7.5286127196019E-03
(PID.TID 0000.0001) %MON dynstat_vvel_min             =  -3.8142354022614E-03
(PID.TID 0000.0001) %MON dynstat_vvel_mean            =   1.4970670995506E-05
(PID.TID 0000.0001) %MON dynstat_vvel_sd              =   2.0603633768905E-04
(PID.TID 0000.0001) %MON dynstat_vvel_del2            =   4.5167178002300E-07
(PID.TID 0000.0001) %MON dynstat_wvel_max             =   3.2754402308726E-04
(PID.TID 0000.0001) %MON dynstat_wvel_min             =  -3.4380199429533E-04
(PID.TID 0000.0001) %MON dynstat_wvel_mean            =   6.6320998899171E-09
(PID.TID 0000.0001) %MON dynstat_wvel_sd              =   1.7559728490700E-05
(PID.TID 0000.0001) %MON dynstat_wvel_del2            =   7.2220842387672E-08
(PID.TID 0000.0001) %MON dynstat_theta_max            =   1.2000000000000E+00
(PID.TID 0000.0001) %MON dynstat_theta_min            =  -1.0000000000000E+00
(PID.TID 0000.0001) %MON dynstat_theta_mean           =   5.6894427703377E-01
(PID.TID 0000.0001) %MON dynstat_theta_sd             =   8.6849907832856E-01
(PID.TID 0000.0001) %MON dynstat_theta_del2           =   1.4020338893251E-06
(PID.TID 0000.0001) %MON dynstat_salt_max             =   3.4700000000000E+01
(PID.TID 0000.0001) %MON dynstat_salt_min             =   3.4000000000000E+01
(PID.TID 0000.0001) %MON dynstat_salt_mean            =   3.4499191870904E+01
(PID.TID 0000.0001) %MON dynstat_salt_sd              =   2.7633503625998E-01
(PID.TID 0000.0001) %MON dynstat_salt_del2            =   5.3918212054430E-07
(PID.TID 0000.0001) %MON advcfl_uvel_max              =   9.1617060786788E-04
(PID.TID 0000.0001) %MON advcfl_vvel_max              =   7.5286127196019E-04
(PID.TID 0000.0001) %MON advcfl_wvel_max              =   1.7190099714766E-03
(PID.TID 0000.0001) %MON advcfl_W_hf_max              =   1.7190099714766E-03
(PID.TID 0000.0001) %MON pe_b_mean                    =  -8.3006906687991E-01
(PID.TID 0000.0001) %MON ke_max                       =   2.4948502837178E-05
(PID.TID 0000.0001) %MON ke_mean                      =   6.2492793588722E-08
(PID.TID 0000.0001) %MON ke_vol                       =   4.2725034789913E+12
(PID.TID 0000.0001) // =======================================================
(PID.TID 0000.0001) // End MONITOR dynamic field statistics
(PID.TID 0000.0001) // =======================================================
(PID.TID 0000.0001) // =======================================================
(PID.TID 0000.0001) // Begin OBCS MONITOR field statistics
(PID.TID 0000.0001) // =======================================================
(PID.TID 0000.0001) %MON obc_N_vVel_max               =   1.4734204939853E-05
(PID.TID 0000.0001) %MON obc_N_vVel_min               =   1.4734204939852E-05
(PID.TID 0000.0001) %MON obc_N_vVel_mean              =   1.4734204939853E-05
(PID.TID 0000.0001) %MON obc_N_vVel_sd                =  -1.1373733422604E-23
(PID.TID 0000.0001) %MON obc_N_vVel_Int               =   9.7245752603030E+02
(PID.TID 0000.0001) // =======================================================
(PID.TID 0000.0001) // End OBCS MONITOR field statistics
(PID.TID 0000.0001) // =======================================================
 cg2d: Sum(rhs),rhsMax =   4.50945738088710E+00  2.99908553510092E+02
(PID.TID 0000.0001)      cg2d_init_res =   5.93254784535832E-06
(PID.TID 0000.0001)      cg2d_iters(min,last) =      -1      78
(PID.TID 0000.0001)      cg2d_last_res =   8.18101094926995E-12
(PID.TID 0000.0001) // =======================================================
(PID.TID 0000.0001) // Begin MONITOR dynamic field statistics
(PID.TID 0000.0001) // =======================================================
(PID.TID 0000.0001) %MON time_tsnumber                =                   712
(PID.TID 0000.0001) %MON time_secondsf                =   7.1200000000000E+04
(PID.TID 0000.0001) %MON dynstat_eta_max              =   5.7977139760775E+00
(PID.TID 0000.0001) %MON dynstat_eta_min              =  -1.4192532086090E+01
(PID.TID 0000.0001) %MON dynstat_eta_mean             =  -2.5044904448468E+00
(PID.TID 0000.0001) %MON dynstat_eta_sd               =   4.9500906777223E+00
(PID.TID 0000.0001) %MON dynstat_eta_del2             =   2.0714360066963E-01
(PID.TID 0000.0001) %MON dynstat_uvel_max             =   2.0605093761930E-03
(PID.TID 0000.0001) %MON dynstat_uvel_min             =  -9.1890918310682E-03
(PID.TID 0000.0001) %MON dynstat_uvel_mean            =  -1.1741132246367E-07
(PID.TID 0000.0001) %MON dynstat_uvel_sd              =   2.9041452392570E-04
(PID.TID 0000.0001) %MON dynstat_uvel_del2            =   4.9231829376570E-07
(PID.TID 0000.0001) %MON dynstat_vvel_max             =   7.5506870645468E-03
(PID.TID 0000.0001) %MON dynstat_vvel_min             =  -3.8232185227551E-03
(PID.TID 0000.0001) %MON dynstat_vvel_mean            =   1.4970500137294E-05
(PID.TID 0000.0001) %MON dynstat_vvel_sd              =   2.0630241432884E-04
(PID.TID 0000.0001) %MON dynstat_vvel_del2            =   4.5122231057277E-07
(PID.TID 0000.0001) %MON dynstat_wvel_max             =   3.2867563358203E-04
(PID.TID 0000.0001) %MON dynstat_wvel_min             =  -3.4481618372140E-04
(PID.TID 0000.0001) %MON dynstat_wvel_mean            =   6.6325440255447E-09
(PID.TID 0000.0001) %MON dynstat_wvel_sd              =   1.7247551533285E-05
(PID.TID 0000.0001) %MON dynstat_wvel_del2            =   6.9922773933205E-08
(PID.TID 0000.0001) %MON dynstat_theta_max            =   1.2000000000000E+00
(PID.TID 0000.0001) %MON dynstat_theta_min            =  -1.0000000000000E+00
(PID.TID 0000.0001) %MON dynstat_theta_mean           =   5.6894385253311E-01
(PID.TID 0000.0001) %MON dynstat_theta_sd             =   8.6849884587854E-01
(PID.TID 0000.0001) %MON dynstat_theta_del2           =   1.4055493212903E-06
(PID.TID 0000.0001) %MON dynstat_salt_max             =   3.4700000000000E+01
(PID.TID 0000.0001) %MON dynstat_salt_min             =   3.4000000000000E+01
(PID.TID 0000.0001) %MON dynstat_salt_mean            =   3.4499191701299E+01
(PID.TID 0000.0001) %MON dynstat_salt_sd              =   2.7633494837866E-01
(PID.TID 0000.0001) %MON dynstat_salt_del2            =   5.4045247723649E-07
(PID.TID 0000.0001) %MON advcfl_uvel_max              =   9.1890918310682E-04
(PID.TID 0000.0001) %MON advcfl_vvel_max              =   7.5506870645468E-04
(PID.TID 0000.0001) %MON advcfl_wvel_max              =   1.7240809186070E-03
(PID.TID 0000.0001) %MON advcfl_W_hf_max              =   1.7240809186070E-03
(PID.TID 0000.0001) %MON pe_b_mean                    =  -8.3007266939680E-01
(PID.TID 0000.0001) %MON ke_max                       =   2.5084784899711E-05
(PID.TID 0000.0001) %MON ke_mean                      =   6.2724526076652E-08
(PID.TID 0000.0001) %MON ke_vol                       =   4.2725034028577E+12
(PID.TID 0000.0001) // =======================================================
(PID.TID 0000.0001) // End MONITOR dynamic field statistics
(PID.TID 0000.0001) // =======================================================
(PID.TID 0000.0001) // =======================================================
(PID.TID 0000.0001) // Begin OBCS MONITOR field statistics
(PID.TID 0000.0001) // =======================================================
(PID.TID 0000.0001) %MON obc_N_vVel_max               =   1.4733997446455E-05
(PID.TID 0000.0001) %MON obc_N_vVel_min               =   1.4733997446455E-05
(PID.TID 0000.0001) %MON obc_N_vVel_mean              =   1.4733997446455E-05
(PID.TID 0000.0001) %MON obc_N_vVel_sd                =  -1.6543612251061E-24
(PID.TID 0000.0001) %MON obc_N_vVel_Int               =   9.7244383146604E+02
(PID.TID 0000.0001) // =======================================================
(PID.TID 0000.0001) // End OBCS MONITOR field statistics
(PID.TID 0000.0001) // =======================================================
 cg2d: Sum(rhs),rhsMax =   4.50947929590377E+00  2.99908629499242E+02
(PID.TID 0000.0001)      cg2d_init_res =   5.91236041157560E-06
(PID.TID 0000.0001)      cg2d_iters(min,last) =      -1      78
(PID.TID 0000.0001)      cg2d_last_res =   8.19711835038928E-12
(PID.TID 0000.0001) // =======================================================
(PID.TID 0000.0001) // Begin MONITOR dynamic field statistics
(PID.TID 0000.0001) // =======================================================
(PID.TID 0000.0001) %MON time_tsnumber                =                   713
(PID.TID 0000.0001) %MON time_secondsf                =   7.1300000000000E+04
(PID.TID 0000.0001) %MON dynstat_eta_max              =   5.7977034924700E+00
(PID.TID 0000.0001) %MON dynstat_eta_min              =  -1.4192556701497E+01
(PID.TID 0000.0001) %MON dynstat_eta_mean             =  -2.5045032507217E+00
(PID.TID 0000.0001) %MON dynstat_eta_sd               =   4.9500949831194E+00
(PID.TID 0000.0001) %MON dynstat_eta_del2             =   2.0714361408624E-01
(PID.TID 0000.0001) %MON dynstat_uvel_max             =   2.0666332722925E-03
(PID.TID 0000.0001) %MON dynstat_uvel_min             =  -9.2165488281921E-03
(PID.TID 0000.0001) %MON dynstat_uvel_mean            =  -1.1741357411356E-07
(PID.TID 0000.0001) %MON dynstat_uvel_sd              =   2.9103958720762E-04
(PID.TID 0000.0001) %MON dynstat_uvel_del2            =   4.9323354417942E-07
(PID.TID 0000.0001) %MON dynstat_vvel_max             =   7.5728088414855E-03
(PID.TID 0000.0001) %MON dynstat_vvel_min             =  -3.8322087051874E-03
(PID.TID 0000.0001) %MON dynstat_vvel_mean            =   1.4970418681339E-05
(PID.TID 0000.0001) %MON dynstat_vvel_sd              =   2.0656989976916E-04
(PID.TID 0000.0001) %MON dynstat_vvel_del2            =   4.5078343913615E-07
(PID.TID 0000.0001) %MON dynstat_wvel_max             =   3.2981001688221E-04
(PID.TID 0000.0001) %MON dynstat_wvel_min             =  -3.4583305563185E-04
(PID.TID 0000.0001) %MON dynstat_wvel_mean            =   6.6331784660296E-09
(PID.TID 0000.0001) %MON dynstat_wvel_sd              =   1.6930443754553E-05
(PID.TID 0000.0001) %MON dynstat_wvel_del2            =   6.7496204619429E-08
(PID.TID 0000.0001) %MON dynstat_theta_max            =   1.2000000000000E+00
(PID.TID 0000.0001) %MON dynstat_theta_min            =  -1.0000000000000E+00
(PID.TID 0000.0001) %MON dynstat_theta_mean           =   5.6894342720925E-01
(PID.TID 0000.0001) %MON dynstat_theta_sd             =   8.6849861318323E-01
(PID.TID 0000.0001) %MON dynstat_theta_del2           =   1.4090150496489E-06
(PID.TID 0000.0001) %MON dynstat_salt_max             =   3.4700000000000E+01
(PID.TID 0000.0001) %MON dynstat_salt_min             =   3.4000000000000E+01
(PID.TID 0000.0001) %MON dynstat_salt_mean            =   3.4499191531379E+01
(PID.TID 0000.0001) %MON dynstat_salt_sd              =   2.7633486038945E-01
(PID.TID 0000.0001) %MON dynstat_salt_del2            =   5.4171048137408E-07
(PID.TID 0000.0001) %MON advcfl_uvel_max              =   9.2165488281921E-04
(PID.TID 0000.0001) %MON advcfl_vvel_max              =   7.5728088414855E-04
(PID.TID 0000.0001) %MON advcfl_wvel_max              =   1.7291652781593E-03
(PID.TID 0000.0001) %MON advcfl_W_hf_max              =   1.7291652781593E-03
(PID.TID 0000.0001) %MON pe_b_mean                    =  -8.3007626997765E-01
(PID.TID 0000.0001) %MON ke_max                       =   2.5221746056817E-05
(PID.TID 0000.0001) %MON ke_mean                      =   6.2957861284229E-08
(PID.TID 0000.0001) %MON ke_vol                       =   4.2725033267576E+12
(PID.TID 0000.0001) // =======================================================
(PID.TID 0000.0001) // End MONITOR dynamic field statistics
(PID.TID 0000.0001) // =======================================================
(PID.TID 0000.0001) // =======================================================
(PID.TID 0000.0001) // Begin OBCS MONITOR field statistics
(PID.TID 0000.0001) // =======================================================
(PID.TID 0000.0001) %MON obc_N_vVel_max               =   1.4733858454701E-05
(PID.TID 0000.0001) %MON obc_N_vVel_min               =   1.4733858454701E-05
(PID.TID 0000.0001) %MON obc_N_vVel_mean              =   1.4733858454701E-05
(PID.TID 0000.0001) %MON obc_N_vVel_sd                =  -5.7644148937289E-24
(PID.TID 0000.0001) %MON obc_N_vVel_Int               =   9.7243465801029E+02
(PID.TID 0000.0001) // =======================================================
(PID.TID 0000.0001) // End OBCS MONITOR field statistics
(PID.TID 0000.0001) // =======================================================
 cg2d: Sum(rhs),rhsMax =   4.50950120084087E+00  2.99908705495091E+02
(PID.TID 0000.0001)      cg2d_init_res =   5.89258417485713E-06
(PID.TID 0000.0001)      cg2d_iters(min,last) =      -1      78
(PID.TID 0000.0001)      cg2d_last_res =   8.21436146806353E-12
(PID.TID 0000.0001) // =======================================================
(PID.TID 0000.0001) // Begin MONITOR dynamic field statistics
(PID.TID 0000.0001) // =======================================================
(PID.TID 0000.0001) %MON time_tsnumber                =                   714
(PID.TID 0000.0001) %MON time_secondsf                =   7.1400000000000E+04
(PID.TID 0000.0001) %MON dynstat_eta_max              =   5.7976930298003E+00
(PID.TID 0000.0001) %MON dynstat_eta_min              =  -1.4192581316547E+01
(PID.TID 0000.0001) %MON dynstat_eta_mean             =  -2.5045160510606E+00
(PID.TID 0000.0001) %MON dynstat_eta_sd               =   4.9500992871881E+00
(PID.TID 0000.0001) %MON dynstat_eta_del2             =   2.0714362753385E-01
(PID.TID 0000.0001) %MON dynstat_uvel_max             =   2.0727719174474E-03
(PID.TID 0000.0001) %MON dynstat_uvel_min             =  -9.2440771641584E-03
(PID.TID 0000.0001) %MON dynstat_uvel_mean            =  -1.1741588493941E-07
(PID.TID 0000.0001) %MON dynstat_uvel_sd              =   2.9166768502555E-04
(PID.TID 0000.0001) %MON dynstat_uvel_del2            =   4.9415112817572E-07
(PID.TID 0000.0001) %MON dynstat_vvel_max             =   7.5949781141587E-03
(PID.TID 0000.0001) %MON dynstat_vvel_min             =  -3.8412059741812E-03
(PID.TID 0000.0001) %MON dynstat_vvel_mean            =   1.4970432065819E-05
(PID.TID 0000.0001) %MON dynstat_vvel_sd              =   2.0684575255061E-04
(PID.TID 0000.0001) %MON dynstat_vvel_del2            =   4.5044362438671E-07
(PID.TID 0000.0001) %MON dynstat_wvel_max             =   3.3094718005085E-04
(PID.TID 0000.0001) %MON dynstat_wvel_min             =  -3.4685261910230E-04
(PID.TID 0000.0001) %MON dynstat_wvel_mean            =   6.6339899974254E-09
(PID.TID 0000.0001) %MON dynstat_wvel_sd              =   1.6632769383072E-05
(PID.TID 0000.0001) %MON dynstat_wvel_del2            =   6.5126749943229E-08
(PID.TID 0000.0001) %MON dynstat_theta_max            =   1.2000000000000E+00
(PID.TID 0000.0001) %MON dynstat_theta_min            =  -1.0000000000000E+00
(PID.TID 0000.0001) %MON dynstat_theta_mean           =   5.6894300107599E-01
(PID.TID 0000.0001) %MON dynstat_theta_sd             =   8.6849838022558E-01
(PID.TID 0000.0001) %MON dynstat_theta_del2           =   1.4123304098276E-06
(PID.TID 0000.0001) %MON dynstat_salt_max             =   3.4700000000000E+01
(PID.TID 0000.0001) %MON dynstat_salt_min             =   3.4000000000000E+01
(PID.TID 0000.0001) %MON dynstat_salt_mean            =   3.4499191361148E+01
(PID.TID 0000.0001) %MON dynstat_salt_sd              =   2.7633477228700E-01
(PID.TID 0000.0001) %MON dynstat_salt_del2            =   5.4292961687804E-07
(PID.TID 0000.0001) %MON advcfl_uvel_max              =   9.2440771641584E-04
(PID.TID 0000.0001) %MON advcfl_vvel_max              =   7.5949781141587E-04
(PID.TID 0000.0001) %MON advcfl_wvel_max              =   1.7342630955115E-03
(PID.TID 0000.0001) %MON advcfl_W_hf_max              =   1.7342630955115E-03
(PID.TID 0000.0001) %MON pe_b_mean                    =  -8.3007986863702E-01
(PID.TID 0000.0001) %MON ke_max                       =   2.5359389045581E-05
(PID.TID 0000.0001) %MON ke_mean                      =   6.3194250507532E-08
(PID.TID 0000.0001) %MON ke_vol                       =   4.2725032506907E+12
(PID.TID 0000.0001) // =======================================================
(PID.TID 0000.0001) // End MONITOR dynamic field statistics
(PID.TID 0000.0001) // =======================================================
(PID.TID 0000.0001) // =======================================================
(PID.TID 0000.0001) // Begin OBCS MONITOR field statistics
(PID.TID 0000.0001) // =======================================================
(PID.TID 0000.0001) %MON obc_N_vVel_max               =   1.4733794171988E-05
(PID.TID 0000.0001) %MON obc_N_vVel_min               =   1.4733794171988E-05
(PID.TID 0000.0001) %MON obc_N_vVel_mean              =   1.4733794171988E-05
(PID.TID 0000.0001) %MON obc_N_vVel_sd                =  -3.1277766912161E-24
(PID.TID 0000.0001) %MON obc_N_vVel_Int               =   9.7243041535123E+02
(PID.TID 0000.0001) // =======================================================
(PID.TID 0000.0001) // End OBCS MONITOR field statistics
(PID.TID 0000.0001) // =======================================================
 cg2d: Sum(rhs),rhsMax =   4.50952309582731E+00  2.99908781496012E+02
(PID.TID 0000.0001)      cg2d_init_res =   5.87489945696610E-06
(PID.TID 0000.0001)      cg2d_iters(min,last) =      -1      78
(PID.TID 0000.0001)      cg2d_last_res =   8.23208278547912E-12
(PID.TID 0000.0001) // =======================================================
(PID.TID 0000.0001) // Begin MONITOR dynamic field statistics
(PID.TID 0000.0001) // =======================================================
(PID.TID 0000.0001) %MON time_tsnumber                =                   715
(PID.TID 0000.0001) %MON time_secondsf                =   7.1500000000000E+04
(PID.TID 0000.0001) %MON dynstat_eta_max              =   5.7976825878647E+00
(PID.TID 0000.0001) %MON dynstat_eta_min              =  -1.4192605931447E+01
(PID.TID 0000.0001) %MON dynstat_eta_mean             =  -2.5045288459217E+00
(PID.TID 0000.0001) %MON dynstat_eta_sd               =   4.9501035899486E+00
(PID.TID 0000.0001) %MON dynstat_eta_del2             =   2.0714364101247E-01
(PID.TID 0000.0001) %MON dynstat_uvel_max             =   2.0789253456392E-03
(PID.TID 0000.0001) %MON dynstat_uvel_min             =  -9.2716769318741E-03
(PID.TID 0000.0001) %MON dynstat_uvel_mean            =  -1.1741820540275E-07
(PID.TID 0000.0001) %MON dynstat_uvel_sd              =   2.9229883482040E-04
(PID.TID 0000.0001) %MON dynstat_uvel_del2            =   4.9507108648439E-07
(PID.TID 0000.0001) %MON dynstat_vvel_max             =   7.6171949457104E-03
(PID.TID 0000.0001) %MON dynstat_vvel_min             =  -3.8502103548481E-03
(PID.TID 0000.0001) %MON dynstat_vvel_mean            =   1.4970542502681E-05
(PID.TID 0000.0001) %MON dynstat_vvel_sd              =   2.0713623372329E-04
(PID.TID 0000.0001) %MON dynstat_vvel_del2            =   4.5028253312212E-07
(PID.TID 0000.0001) %MON dynstat_wvel_max             =   3.3208712995733E-04
(PID.TID 0000.0001) %MON dynstat_wvel_min             =  -3.4787488310512E-04
(PID.TID 0000.0001) %MON dynstat_wvel_mean            =   6.6349600691093E-09
(PID.TID 0000.0001) %MON dynstat_wvel_sd              =   1.6378110177354E-05
(PID.TID 0000.0001) %MON dynstat_wvel_del2            =   6.3012878905388E-08
(PID.TID 0000.0001) %MON dynstat_theta_max            =   1.2000000000000E+00
(PID.TID 0000.0001) %MON dynstat_theta_min            =  -1.0000000000000E+00
(PID.TID 0000.0001) %MON dynstat_theta_mean           =   5.6894257415000E-01
(PID.TID 0000.0001) %MON dynstat_theta_sd             =   8.6849814699371E-01
(PID.TID 0000.0001) %MON dynstat_theta_del2           =   1.4154073501304E-06
(PID.TID 0000.0001) %MON dynstat_salt_max             =   3.4700000000000E+01
(PID.TID 0000.0001) %MON dynstat_salt_min             =   3.4000000000000E+01
(PID.TID 0000.0001) %MON dynstat_salt_mean            =   3.4499191190610E+01
(PID.TID 0000.0001) %MON dynstat_salt_sd              =   2.7633468406739E-01
(PID.TID 0000.0001) %MON dynstat_salt_del2            =   5.4408668600015E-07
(PID.TID 0000.0001) %MON advcfl_uvel_max              =   9.2716769318741E-04
(PID.TID 0000.0001) %MON advcfl_vvel_max              =   7.6171949457104E-04
(PID.TID 0000.0001) %MON advcfl_wvel_max              =   1.7393744155256E-03
(PID.TID 0000.0001) %MON advcfl_W_hf_max              =   1.7393744155256E-03
(PID.TID 0000.0001) %MON pe_b_mean                    =  -8.3008346538937E-01
(PID.TID 0000.0001) %MON ke_max                       =   2.5497716605812E-05
(PID.TID 0000.0001) %MON ke_mean                      =   6.3435008061369E-08
(PID.TID 0000.0001) %MON ke_vol                       =   4.2725031746567E+12
(PID.TID 0000.0001) // =======================================================
(PID.TID 0000.0001) // End MONITOR dynamic field statistics
(PID.TID 0000.0001) // =======================================================
(PID.TID 0000.0001) // =======================================================
(PID.TID 0000.0001) // Begin OBCS MONITOR field statistics
(PID.TID 0000.0001) // =======================================================
(PID.TID 0000.0001) %MON obc_N_vVel_max               =   1.4733808226735E-05
(PID.TID 0000.0001) %MON obc_N_vVel_min               =   1.4733808226735E-05
(PID.TID 0000.0001) %MON obc_N_vVel_mean              =   1.4733808226735E-05
(PID.TID 0000.0001) %MON obc_N_vVel_sd                =   1.4909888987636E-12
(PID.TID 0000.0001) %MON obc_N_vVel_Int               =   9.7243134296448E+02
(PID.TID 0000.0001) // =======================================================
(PID.TID 0000.0001) // End OBCS MONITOR field statistics
(PID.TID 0000.0001) // =======================================================
 cg2d: Sum(rhs),rhsMax =   4.50954498099723E+00  2.99908857500216E+02
(PID.TID 0000.0001)      cg2d_init_res =   5.86081588511864E-06
(PID.TID 0000.0001)      cg2d_iters(min,last) =      -1      78
(PID.TID 0000.0001)      cg2d_last_res =   8.24937451455608E-12
(PID.TID 0000.0001) // =======================================================
(PID.TID 0000.0001) // Begin MONITOR dynamic field statistics
(PID.TID 0000.0001) // =======================================================
(PID.TID 0000.0001) %MON time_tsnumber                =                   716
(PID.TID 0000.0001) %MON time_secondsf                =   7.1600000000000E+04
(PID.TID 0000.0001) %MON dynstat_eta_max              =   5.7976721664659E+00
(PID.TID 0000.0001) %MON dynstat_eta_min              =  -1.4192630546402E+01
(PID.TID 0000.0001) %MON dynstat_eta_mean             =  -2.5045416353643E+00
(PID.TID 0000.0001) %MON dynstat_eta_sd               =   4.9501078914194E+00
(PID.TID 0000.0001) %MON dynstat_eta_del2             =   2.0714365452215E-01
(PID.TID 0000.0001) %MON dynstat_uvel_max             =   2.0850935911412E-03
(PID.TID 0000.0001) %MON dynstat_uvel_min             =  -9.2993482229815E-03
(PID.TID 0000.0001) %MON dynstat_uvel_mean            =  -1.1742049687033E-07
(PID.TID 0000.0001) %MON dynstat_uvel_sd              =   2.9293305298448E-04
(PID.TID 0000.0001) %MON dynstat_uvel_del2            =   4.9599347378905E-07
(PID.TID 0000.0001) %MON dynstat_vvel_max             =   7.6394593990972E-03
(PID.TID 0000.0001) %MON dynstat_vvel_min             =  -3.8592218729114E-03
(PID.TID 0000.0001) %MON dynstat_vvel_mean            =   1.4970748959522E-05
(PID.TID 0000.0001) %MON dynstat_vvel_sd              =   2.0744641212294E-04
(PID.TID 0000.0001) %MON dynstat_vvel_del2            =   4.5036440008653E-07
(PID.TID 0000.0001) %MON dynstat_wvel_max             =   3.3322987361677E-04
(PID.TID 0000.0001) %MON dynstat_wvel_min             =  -3.4889985652547E-04
(PID.TID 0000.0001) %MON dynstat_wvel_mean            =   6.6360648140196E-09
(PID.TID 0000.0001) %MON dynstat_wvel_sd              =   1.6186935012476E-05
(PID.TID 0000.0001) %MON dynstat_wvel_del2            =   6.1347131806914E-08
(PID.TID 0000.0001) %MON dynstat_theta_max            =   1.2000000000000E+00
(PID.TID 0000.0001) %MON dynstat_theta_min            =  -1.0000000000000E+00
(PID.TID 0000.0001) %MON dynstat_theta_mean           =   5.6894214645063E-01
(PID.TID 0000.0001) %MON dynstat_theta_sd             =   8.6849791346924E-01
(PID.TID 0000.0001) %MON dynstat_theta_del2           =   1.4181768797095E-06
(PID.TID 0000.0001) %MON dynstat_salt_max             =   3.4700000000000E+01
(PID.TID 0000.0001) %MON dynstat_salt_min             =   3.4000000000000E+01
(PID.TID 0000.0001) %MON dynstat_salt_mean            =   3.4499191019772E+01
(PID.TID 0000.0001) %MON dynstat_salt_sd              =   2.7633459572453E-01
(PID.TID 0000.0001) %MON dynstat_salt_del2            =   5.4516350722035E-07
(PID.TID 0000.0001) %MON advcfl_uvel_max              =   9.2993482229815E-04
(PID.TID 0000.0001) %MON advcfl_vvel_max              =   7.6394593990972E-04
(PID.TID 0000.0001) %MON advcfl_wvel_max              =   1.7444992826274E-03
(PID.TID 0000.0001) %MON advcfl_W_hf_max              =   1.7444992826274E-03
(PID.TID 0000.0001) %MON pe_b_mean                    =  -8.3008706024889E-01
(PID.TID 0000.0001) %MON ke_max                       =   2.5636731478406E-05
(PID.TID 0000.0001) %MON ke_mean                      =   6.3681208454362E-08
(PID.TID 0000.0001) %MON ke_vol                       =   4.2725030986552E+12
(PID.TID 0000.0001) // =======================================================
(PID.TID 0000.0001) // End MONITOR dynamic field statistics
(PID.TID 0000.0001) // =======================================================
(PID.TID 0000.0001) // =======================================================
(PID.TID 0000.0001) // Begin OBCS MONITOR field statistics
(PID.TID 0000.0001) // =======================================================
(PID.TID 0000.0001) %MON obc_N_vVel_max               =   1.4733901608103E-05
(PID.TID 0000.0001) %MON obc_N_vVel_min               =   1.4733901608102E-05
(PID.TID 0000.0001) %MON obc_N_vVel_mean              =   1.4733901608102E-05
(PID.TID 0000.0001) %MON obc_N_vVel_sd                =   4.7856622540733E-12
(PID.TID 0000.0001) %MON obc_N_vVel_Int               =   9.7243750613474E+02
(PID.TID 0000.0001) // =======================================================
(PID.TID 0000.0001) // End OBCS MONITOR field statistics
(PID.TID 0000.0001) // =======================================================
 cg2d: Sum(rhs),rhsMax =   4.50956685648094E+00  2.99908933505781E+02
(PID.TID 0000.0001)      cg2d_init_res =   5.85153704272501E-06
(PID.TID 0000.0001)      cg2d_iters(min,last) =      -1      78
(PID.TID 0000.0001)      cg2d_last_res =   8.26541749004554E-12
(PID.TID 0000.0001) // =======================================================
(PID.TID 0000.0001) // Begin MONITOR dynamic field statistics
(PID.TID 0000.0001) // =======================================================
(PID.TID 0000.0001) %MON time_tsnumber                =                   717
(PID.TID 0000.0001) %MON time_secondsf                =   7.1700000000000E+04
(PID.TID 0000.0001) %MON dynstat_eta_max              =   5.7976617654083E+00
(PID.TID 0000.0001) %MON dynstat_eta_min              =  -1.4192655161598E+01
(PID.TID 0000.0001) %MON dynstat_eta_mean             =  -2.5045544194448E+00
(PID.TID 0000.0001) %MON dynstat_eta_sd               =   4.9501121916203E+00
(PID.TID 0000.0001) %MON dynstat_eta_del2             =   2.0714366806304E-01
(PID.TID 0000.0001) %MON dynstat_uvel_max             =   2.0912766885637E-03
(PID.TID 0000.0001) %MON dynstat_uvel_min             =  -9.3270911279646E-03
(PID.TID 0000.0001) %MON dynstat_uvel_mean            =  -1.1742273870089E-07
(PID.TID 0000.0001) %MON dynstat_uvel_sd              =   2.9357035498433E-04
(PID.TID 0000.0001) %MON dynstat_uvel_del2            =   4.9691836164963E-07
(PID.TID 0000.0001) %MON dynstat_vvel_max             =   7.6617715378648E-03
(PID.TID 0000.0001) %MON dynstat_vvel_min             =  -3.8682405546542E-03
(PID.TID 0000.0001) %MON dynstat_vvel_mean            =   1.4971047222013E-05
(PID.TID 0000.0001) %MON dynstat_vvel_sd              =   2.0777977541387E-04
(PID.TID 0000.0001) %MON dynstat_vvel_del2            =   4.5073266046414E-07
(PID.TID 0000.0001) %MON dynstat_wvel_max             =   3.3437541838820E-04
(PID.TID 0000.0001) %MON dynstat_wvel_min             =  -3.4992754828525E-04
(PID.TID 0000.0001) %MON dynstat_wvel_mean            =   6.6372763729966E-09
(PID.TID 0000.0001) %MON dynstat_wvel_sd              =   1.6074252681086E-05
(PID.TID 0000.0001) %MON dynstat_wvel_del2            =   6.0290380143955E-08
(PID.TID 0000.0001) %MON dynstat_theta_max            =   1.2000000000000E+00
(PID.TID 0000.0001) %MON dynstat_theta_min            =  -1.0000000000000E+00
(PID.TID 0000.0001) %MON dynstat_theta_mean           =   5.6894171799930E-01
(PID.TID 0000.0001) %MON dynstat_theta_sd             =   8.6849767962897E-01
(PID.TID 0000.0001) %MON dynstat_theta_del2           =   1.4205938124955E-06
(PID.TID 0000.0001) %MON dynstat_salt_max             =   3.4700000000000E+01
(PID.TID 0000.0001) %MON dynstat_salt_min             =   3.4000000000000E+01
(PID.TID 0000.0001) %MON dynstat_salt_mean            =   3.4499190848640E+01
(PID.TID 0000.0001) %MON dynstat_salt_sd              =   2.7633450725104E-01
(PID.TID 0000.0001) %MON dynstat_salt_del2            =   5.4614820064298E-07
(PID.TID 0000.0001) %MON advcfl_uvel_max              =   9.3270911279646E-04
(PID.TID 0000.0001) %MON advcfl_vvel_max              =   7.6617715378648E-04
(PID.TID 0000.0001) %MON advcfl_wvel_max              =   1.7496377414263E-03
(PID.TID 0000.0001) %MON advcfl_W_hf_max              =   1.7496377414263E-03
(PID.TID 0000.0001) %MON pe_b_mean                    =  -8.3009065322853E-01
(PID.TID 0000.0001) %MON ke_max                       =   2.5776436407186E-05
(PID.TID 0000.0001) %MON ke_mean                      =   6.3933604720260E-08
(PID.TID 0000.0001) %MON ke_vol                       =   4.2725030226859E+12
(PID.TID 0000.0001) // =======================================================
(PID.TID 0000.0001) // End MONITOR dynamic field statistics
(PID.TID 0000.0001) // =======================================================
(PID.TID 0000.0001) // =======================================================
(PID.TID 0000.0001) // Begin OBCS MONITOR field statistics
(PID.TID 0000.0001) // =======================================================
(PID.TID 0000.0001) %MON obc_N_vVel_max               =   1.4734072640416E-05
(PID.TID 0000.0001) %MON obc_N_vVel_min               =   1.4734072640415E-05
(PID.TID 0000.0001) %MON obc_N_vVel_mean              =   1.4734072640416E-05
(PID.TID 0000.0001) %MON obc_N_vVel_sd                =  -1.2588654947291E-23
(PID.TID 0000.0001) %MON obc_N_vVel_Int               =   9.7244879426745E+02
(PID.TID 0000.0001) // =======================================================
(PID.TID 0000.0001) // End OBCS MONITOR field statistics
(PID.TID 0000.0001) // =======================================================
 cg2d: Sum(rhs),rhsMax =   4.50958872239588E+00  2.99909009510682E+02
(PID.TID 0000.0001)      cg2d_init_res =   5.84782903956752E-06
(PID.TID 0000.0001)      cg2d_iters(min,last) =      -1      78
(PID.TID 0000.0001)      cg2d_last_res =   8.27948108403500E-12
(PID.TID 0000.0001) // =======================================================
(PID.TID 0000.0001) // Begin MONITOR dynamic field statistics
(PID.TID 0000.0001) // =======================================================
(PID.TID 0000.0001) %MON time_tsnumber                =                   718
(PID.TID 0000.0001) %MON time_secondsf                =   7.1800000000000E+04
(PID.TID 0000.0001) %MON dynstat_eta_max              =   5.7976513845194E+00
(PID.TID 0000.0001) %MON dynstat_eta_min              =  -1.4192679777227E+01
(PID.TID 0000.0001) %MON dynstat_eta_mean             =  -2.5045671982116E+00
(PID.TID 0000.0001) %MON dynstat_eta_sd               =   4.9501164905572E+00
(PID.TID 0000.0001) %MON dynstat_eta_del2             =   2.0714368163481E-01
(PID.TID 0000.0001) %MON dynstat_uvel_max             =   2.0974746727234E-03
(PID.TID 0000.0001) %MON dynstat_uvel_min             =  -9.3549057359930E-03
(PID.TID 0000.0001) %MON dynstat_uvel_mean            =  -1.1742490955945E-07
(PID.TID 0000.0001) %MON dynstat_uvel_sd              =   2.9421075535988E-04
(PID.TID 0000.0001) %MON dynstat_uvel_del2            =   4.9784583870979E-07
(PID.TID 0000.0001) %MON dynstat_vvel_max             =   7.6841314254881E-03
(PID.TID 0000.0001) %MON dynstat_vvel_min             =  -3.8772664268629E-03
(PID.TID 0000.0001) %MON dynstat_vvel_mean            =   1.4971430060291E-05
(PID.TID 0000.0001) %MON dynstat_vvel_sd              =   2.0813797802601E-04
(PID.TID 0000.0001) %MON dynstat_vvel_del2            =   4.5140639610778E-07
(PID.TID 0000.0001) %MON dynstat_wvel_max             =   3.3552377182712E-04
(PID.TID 0000.0001) %MON dynstat_wvel_min             =  -3.5095796718565E-04
(PID.TID 0000.0001) %MON dynstat_wvel_mean            =   6.6385634454846E-09
(PID.TID 0000.0001) %MON dynstat_wvel_sd              =   1.6047697474330E-05
(PID.TID 0000.0001) %MON dynstat_wvel_del2            =   5.9943874009657E-08
(PID.TID 0000.0001) %MON dynstat_theta_max            =   1.2000000000000E+00
(PID.TID 0000.0001) %MON dynstat_theta_min            =  -1.0000000000000E+00
(PID.TID 0000.0001) %MON dynstat_theta_mean           =   5.6894128881863E-01
(PID.TID 0000.0001) %MON dynstat_theta_sd             =   8.6849744543667E-01
(PID.TID 0000.0001) %MON dynstat_theta_del2           =   1.4226396013239E-06
(PID.TID 0000.0001) %MON dynstat_salt_max             =   3.4700000000000E+01
(PID.TID 0000.0001) %MON dynstat_salt_min             =   3.4000000000000E+01
(PID.TID 0000.0001) %MON dynstat_salt_mean            =   3.4499190677221E+01
(PID.TID 0000.0001) %MON dynstat_salt_sd              =   2.7633441863513E-01
(PID.TID 0000.0001) %MON dynstat_salt_del2            =   5.4703578487843E-07
(PID.TID 0000.0001) %MON advcfl_uvel_max              =   9.3549057359930E-04
(PID.TID 0000.0001) %MON advcfl_vvel_max              =   7.6841314254881E-04
(PID.TID 0000.0001) %MON advcfl_wvel_max              =   1.7547898359282E-03
(PID.TID 0000.0001) %MON advcfl_W_hf_max              =   1.7547898359282E-03
(PID.TID 0000.0001) %MON pe_b_mean                    =  -8.3009424433745E-01
(PID.TID 0000.0001) %MON ke_max                       =   2.5916834137107E-05
(PID.TID 0000.0001) %MON ke_mean                      =   6.4192574226585E-08
(PID.TID 0000.0001) %MON ke_vol                       =   4.2725029467485E+12
(PID.TID 0000.0001) // =======================================================
(PID.TID 0000.0001) // End MONITOR dynamic field statistics
(PID.TID 0000.0001) // =======================================================
(PID.TID 0000.0001) // =======================================================
(PID.TID 0000.0001) // Begin OBCS MONITOR field statistics
(PID.TID 0000.0001) // =======================================================
(PID.TID 0000.0001) %MON obc_N_vVel_max               =   1.4734317093151E-05
(PID.TID 0000.0001) %MON obc_N_vVel_min               =   1.4734317093151E-05
(PID.TID 0000.0001) %MON obc_N_vVel_mean              =   1.4734317093151E-05
(PID.TID 0000.0001) %MON obc_N_vVel_sd                =  -7.8582158192538E-24
(PID.TID 0000.0001) %MON obc_N_vVel_Int               =   9.7246492814799E+02
(PID.TID 0000.0001) // =======================================================
(PID.TID 0000.0001) // End OBCS MONITOR field statistics
(PID.TID 0000.0001) // =======================================================
 cg2d: Sum(rhs),rhsMax =   4.50961057885839E+00  2.99909085512825E+02
(PID.TID 0000.0001)      cg2d_init_res =   5.85002281045767E-06
(PID.TID 0000.0001)      cg2d_iters(min,last) =      -1      78
(PID.TID 0000.0001)      cg2d_last_res =   8.29145778390334E-12
(PID.TID 0000.0001) // =======================================================
(PID.TID 0000.0001) // Begin MONITOR dynamic field statistics
(PID.TID 0000.0001) // =======================================================
(PID.TID 0000.0001) %MON time_tsnumber                =                   719
(PID.TID 0000.0001) %MON time_secondsf                =   7.1900000000000E+04
(PID.TID 0000.0001) %MON dynstat_eta_max              =   5.7976410236534E+00
(PID.TID 0000.0001) %MON dynstat_eta_min              =  -1.4192704393429E+01
(PID.TID 0000.0001) %MON dynstat_eta_mean             =  -2.5045799717118E+00
(PID.TID 0000.0001) %MON dynstat_eta_sd               =   4.9501207882375E+00
(PID.TID 0000.0001) %MON dynstat_eta_del2             =   2.0714369523746E-01
(PID.TID 0000.0001) %MON dynstat_uvel_max             =   2.1036875786216E-03
(PID.TID 0000.0001) %MON dynstat_uvel_min             =  -9.3827921351526E-03
(PID.TID 0000.0001) %MON dynstat_uvel_mean            =  -1.1742697421558E-07
(PID.TID 0000.0001) %MON dynstat_uvel_sd              =   2.9485426759672E-04
(PID.TID 0000.0001) %MON dynstat_uvel_del2            =   4.9877600882638E-07
(PID.TID 0000.0001) %MON dynstat_vvel_max             =   7.7065391251598E-03
(PID.TID 0000.0001) %MON dynstat_vvel_min             =  -3.8862995167577E-03
(PID.TID 0000.0001) %MON dynstat_vvel_mean            =   1.4971887482438E-05
(PID.TID 0000.0001) %MON dynstat_vvel_sd              =   2.0852074542248E-04
(PID.TID 0000.0001) %MON dynstat_vvel_del2            =   4.5237896473584E-07
(PID.TID 0000.0001) %MON dynstat_wvel_max             =   3.3667494160186E-04
(PID.TID 0000.0001) %MON dynstat_wvel_min             =  -3.5199112200180E-04
(PID.TID 0000.0001) %MON dynstat_wvel_mean            =   6.6398926835456E-09
(PID.TID 0000.0001) %MON dynstat_wvel_sd              =   1.6106515547169E-05
(PID.TID 0000.0001) %MON dynstat_wvel_del2            =   6.0328320909340E-08
(PID.TID 0000.0001) %MON dynstat_theta_max            =   1.2000000000000E+00
(PID.TID 0000.0001) %MON dynstat_theta_min            =  -1.0000000000000E+00
(PID.TID 0000.0001) %MON dynstat_theta_mean           =   5.6894085893308E-01
(PID.TID 0000.0001) %MON dynstat_theta_sd             =   8.6849721085264E-01
(PID.TID 0000.0001) %MON dynstat_theta_del2           =   1.4243228546544E-06
(PID.TID 0000.0001) %MON dynstat_salt_max             =   3.4700000000000E+01
(PID.TID 0000.0001) %MON dynstat_salt_min             =   3.4000000000000E+01
(PID.TID 0000.0001) %MON dynstat_salt_mean            =   3.4499190505522E+01
(PID.TID 0000.0001) %MON dynstat_salt_sd              =   2.7633432986421E-01
(PID.TID 0000.0001) %MON dynstat_salt_del2            =   5.4782870627197E-07
(PID.TID 0000.0001) %MON advcfl_uvel_max              =   9.3827921351526E-04
(PID.TID 0000.0001) %MON advcfl_vvel_max              =   7.7065391251598E-04
(PID.TID 0000.0001) %MON advcfl_wvel_max              =   1.7599556100090E-03
(PID.TID 0000.0001) %MON advcfl_W_hf_max              =   1.7599556100090E-03
(PID.TID 0000.0001) %MON pe_b_mean                    =  -8.3009783358442E-01
(PID.TID 0000.0001) %MON ke_max                       =   2.6057927416130E-05
(PID.TID 0000.0001) %MON ke_mean                      =   6.4458096005279E-08
(PID.TID 0000.0001) %MON ke_vol                       =   4.2725028708426E+12
(PID.TID 0000.0001) // =======================================================
(PID.TID 0000.0001) // End MONITOR dynamic field statistics
(PID.TID 0000.0001) // =======================================================
(PID.TID 0000.0001) // =======================================================
(PID.TID 0000.0001) // Begin OBCS MONITOR field statistics
(PID.TID 0000.0001) // =======================================================
(PID.TID 0000.0001) %MON obc_N_vVel_max               =   1.4734628326774E-05
(PID.TID 0000.0001) %MON obc_N_vVel_min               =   1.4734628326773E-05
(PID.TID 0000.0001) %MON obc_N_vVel_mean              =   1.4734628326773E-05
(PID.TID 0000.0001) %MON obc_N_vVel_sd                =   3.2713375207864E-12
(PID.TID 0000.0001) %MON obc_N_vVel_Int               =   9.7248546956702E+02
(PID.TID 0000.0001) // =======================================================
(PID.TID 0000.0001) // End OBCS MONITOR field statistics
(PID.TID 0000.0001) // =======================================================
 cg2d: Sum(rhs),rhsMax =   4.50963242596614E+00  2.99909161510103E+02
(PID.TID 0000.0001)      cg2d_init_res =   5.85793971696547E-06
(PID.TID 0000.0001)      cg2d_iters(min,last) =      -1      78
(PID.TID 0000.0001)      cg2d_last_res =   8.30195690013569E-12
(PID.TID 0000.0001) // =======================================================
(PID.TID 0000.0001) // Begin MONITOR dynamic field statistics
(PID.TID 0000.0001) // =======================================================
(PID.TID 0000.0001) %MON time_tsnumber                =                   720
(PID.TID 0000.0001) %MON time_secondsf                =   7.2000000000000E+04
(PID.TID 0000.0001) %MON dynstat_eta_max              =   5.7976306826682E+00
(PID.TID 0000.0001) %MON dynstat_eta_min              =  -1.4192729010349E+01
(PID.TID 0000.0001) %MON dynstat_eta_mean             =  -2.5045927399820E+00
(PID.TID 0000.0001) %MON dynstat_eta_sd               =   4.9501250846684E+00
(PID.TID 0000.0001) %MON dynstat_eta_del2             =   2.0714370887139E-01
(PID.TID 0000.0001) %MON dynstat_uvel_max             =   2.1099154415722E-03
(PID.TID 0000.0001) %MON dynstat_uvel_min             =  -9.4107504122718E-03
(PID.TID 0000.0001) %MON dynstat_uvel_mean            =  -1.1742887887850E-07
(PID.TID 0000.0001) %MON dynstat_uvel_sd              =   2.9550090383791E-04
(PID.TID 0000.0001) %MON dynstat_uvel_del2            =   4.9970898468258E-07
(PID.TID 0000.0001) %MON dynstat_vvel_max             =   7.7289946999199E-03
(PID.TID 0000.0001) %MON dynstat_vvel_min             =  -3.8953398520212E-03
(PID.TID 0000.0001) %MON dynstat_vvel_mean            =   1.4972407087145E-05
(PID.TID 0000.0001) %MON dynstat_vvel_sd              =   2.0892594005126E-04
(PID.TID 0000.0001) %MON dynstat_vvel_del2            =   4.5361894970742E-07
(PID.TID 0000.0001) %MON dynstat_wvel_max             =   3.3782893542878E-04
(PID.TID 0000.0001) %MON dynstat_wvel_min             =  -3.5302702150521E-04
(PID.TID 0000.0001) %MON dynstat_wvel_mean            =   6.6412293893336E-09
(PID.TID 0000.0001) %MON dynstat_wvel_sd              =   1.6241738790995E-05
(PID.TID 0000.0001) %MON dynstat_wvel_del2            =   6.1379187885781E-08
(PID.TID 0000.0001) %MON dynstat_theta_max            =   1.2000000000000E+00
(PID.TID 0000.0001) %MON dynstat_theta_min            =  -1.0000000000000E+00
(PID.TID 0000.0001) %MON dynstat_theta_mean           =   5.6894042836746E-01
(PID.TID 0000.0001) %MON dynstat_theta_sd             =   8.6849697583074E-01
(PID.TID 0000.0001) %MON dynstat_theta_del2           =   1.4256783809378E-06
(PID.TID 0000.0001) %MON dynstat_salt_max             =   3.4700000000000E+01
(PID.TID 0000.0001) %MON dynstat_salt_min             =   3.4000000000000E+01
(PID.TID 0000.0001) %MON dynstat_salt_mean            =   3.4499190333552E+01
(PID.TID 0000.0001) %MON dynstat_salt_sd              =   2.7633424092329E-01
(PID.TID 0000.0001) %MON dynstat_salt_del2            =   5.4853621364353E-07
(PID.TID 0000.0001) %MON advcfl_uvel_max              =   9.4107504122718E-04
(PID.TID 0000.0001) %MON advcfl_vvel_max              =   7.7289946999199E-04
(PID.TID 0000.0001) %MON advcfl_wvel_max              =   1.7651351075260E-03
(PID.TID 0000.0001) %MON advcfl_W_hf_max              =   1.7651351075260E-03
(PID.TID 0000.0001) %MON pe_b_mean                    =  -8.3010142097503E-01
(PID.TID 0000.0001) %MON ke_max                       =   2.6199718994097E-05
(PID.TID 0000.0001) %MON ke_mean                      =   6.4729760929722E-08
(PID.TID 0000.0001) %MON ke_vol                       =   4.2725027949680E+12
(PID.TID 0000.0001) // =======================================================
(PID.TID 0000.0001) // End MONITOR dynamic field statistics
(PID.TID 0000.0001) // =======================================================
(PID.TID 0000.0001) // =======================================================
(PID.TID 0000.0001) // Begin OBCS MONITOR field statistics
(PID.TID 0000.0001) // =======================================================
(PID.TID 0000.0001) %MON obc_N_vVel_max               =   1.4734997530039E-05
(PID.TID 0000.0001) %MON obc_N_vVel_min               =   1.4734997530039E-05
(PID.TID 0000.0001) %MON obc_N_vVel_mean              =   1.4734997530039E-05
(PID.TID 0000.0001) %MON obc_N_vVel_sd                =   1.9360170842818E-12
(PID.TID 0000.0001) %MON obc_N_vVel_Int               =   9.7250983698256E+02
(PID.TID 0000.0001) // =======================================================
(PID.TID 0000.0001) // End OBCS MONITOR field statistics
(PID.TID 0000.0001) // =======================================================
 cg2d: Sum(rhs),rhsMax =   4.50965426379425E+00  2.99909237500429E+02
(PID.TID 0000.0001)      cg2d_init_res =   5.87088463404674E-06
(PID.TID 0000.0001)      cg2d_iters(min,last) =      -1      78
(PID.TID 0000.0001)      cg2d_last_res =   8.31138864639762E-12
(PID.TID 0000.0001) // =======================================================
(PID.TID 0000.0001) // Begin MONITOR dynamic field statistics
(PID.TID 0000.0001) // =======================================================
(PID.TID 0000.0001) %MON time_tsnumber                =                   721
(PID.TID 0000.0001) %MON time_secondsf                =   7.2100000000000E+04
(PID.TID 0000.0001) %MON dynstat_eta_max              =   5.7976203614869E+00
(PID.TID 0000.0001) %MON dynstat_eta_min              =  -1.4192753628085E+01
(PID.TID 0000.0001) %MON dynstat_eta_mean             =  -2.5046055030465E+00
(PID.TID 0000.0001) %MON dynstat_eta_sd               =   4.9501293798498E+00
(PID.TID 0000.0001) %MON dynstat_eta_del2             =   2.0714372253679E-01
(PID.TID 0000.0001) %MON dynstat_uvel_max             =   2.1161582968539E-03
(PID.TID 0000.0001) %MON dynstat_uvel_min             =  -9.4387806532445E-03
(PID.TID 0000.0001) %MON dynstat_uvel_mean            =  -1.1743053534354E-07
(PID.TID 0000.0001) %MON dynstat_uvel_sd              =   2.9615067452125E-04
(PID.TID 0000.0001) %MON dynstat_uvel_del2            =   5.0064488144851E-07
(PID.TID 0000.0001) %MON dynstat_vvel_max             =   7.7514982125839E-03
(PID.TID 0000.0001) %MON dynstat_vvel_min             =  -3.9043874605857E-03
(PID.TID 0000.0001) %MON dynstat_vvel_mean            =   1.4972974502328E-05
(PID.TID 0000.0001) %MON dynstat_vvel_sd              =   2.0934978090549E-04
(PID.TID 0000.0001) %MON dynstat_vvel_del2            =   4.5507330771447E-07
(PID.TID 0000.0001) %MON dynstat_wvel_max             =   3.3898576099924E-04
(PID.TID 0000.0001) %MON dynstat_wvel_min             =  -3.5406567436761E-04
(PID.TID 0000.0001) %MON dynstat_wvel_mean            =   6.6425392508176E-09
(PID.TID 0000.0001) %MON dynstat_wvel_sd              =   1.6437507805031E-05
(PID.TID 0000.0001) %MON dynstat_wvel_del2            =   6.2960684679600E-08
(PID.TID 0000.0001) %MON dynstat_theta_max            =   1.2000000000000E+00
(PID.TID 0000.0001) %MON dynstat_theta_min            =  -1.0000000000000E+00
(PID.TID 0000.0001) %MON dynstat_theta_mean           =   5.6893999714647E-01
(PID.TID 0000.0001) %MON dynstat_theta_sd             =   8.6849674033532E-01
(PID.TID 0000.0001) %MON dynstat_theta_del2           =   1.4267641330551E-06
(PID.TID 0000.0001) %MON dynstat_salt_max             =   3.4700000000000E+01
(PID.TID 0000.0001) %MON dynstat_salt_min             =   3.4000000000000E+01
(PID.TID 0000.0001) %MON dynstat_salt_mean            =   3.4499190161317E+01
(PID.TID 0000.0001) %MON dynstat_salt_sd              =   2.7633415180111E-01
(PID.TID 0000.0001) %MON dynstat_salt_del2            =   5.4917362962936E-07
(PID.TID 0000.0001) %MON advcfl_uvel_max              =   9.4387806532446E-04
(PID.TID 0000.0001) %MON advcfl_vvel_max              =   7.7514982125839E-04
(PID.TID 0000.0001) %MON advcfl_wvel_max              =   1.7703283718381E-03
(PID.TID 0000.0001) %MON advcfl_W_hf_max              =   1.7703283718381E-03
(PID.TID 0000.0001) %MON pe_b_mean                    =  -8.3010500651106E-01
(PID.TID 0000.0001) %MON ke_max                       =   2.6342211624297E-05
(PID.TID 0000.0001) %MON ke_mean                      =   6.5006813525554E-08
(PID.TID 0000.0001) %MON ke_vol                       =   4.2725027191245E+12
(PID.TID 0000.0001) // =======================================================
(PID.TID 0000.0001) // End MONITOR dynamic field statistics
(PID.TID 0000.0001) // =======================================================
(PID.TID 0000.0001) // =======================================================
(PID.TID 0000.0001) // Begin OBCS MONITOR field statistics
(PID.TID 0000.0001) // =======================================================
(PID.TID 0000.0001) %MON obc_N_vVel_max               =   1.4735414023192E-05
(PID.TID 0000.0001) %MON obc_N_vVel_min               =   1.4735414023191E-05
(PID.TID 0000.0001) %MON obc_N_vVel_mean              =   1.4735414023192E-05
(PID.TID 0000.0001) %MON obc_N_vVel_sd                =  -2.1506695926379E-23
(PID.TID 0000.0001) %MON obc_N_vVel_Int               =   9.7253732553066E+02
(PID.TID 0000.0001) // =======================================================
(PID.TID 0000.0001) // End OBCS MONITOR field statistics
(PID.TID 0000.0001) // =======================================================
 cg2d: Sum(rhs),rhsMax =   4.50967609238819E+00  2.99909313481784E+02
(PID.TID 0000.0001)      cg2d_init_res =   5.88775204643279E-06
(PID.TID 0000.0001)      cg2d_iters(min,last) =      -1      78
(PID.TID 0000.0001)      cg2d_last_res =   8.32030529079412E-12
(PID.TID 0000.0001) // =======================================================
(PID.TID 0000.0001) // Begin MONITOR dynamic field statistics
(PID.TID 0000.0001) // =======================================================
(PID.TID 0000.0001) %MON time_tsnumber                =                   722
(PID.TID 0000.0001) %MON time_secondsf                =   7.2200000000000E+04
(PID.TID 0000.0001) %MON dynstat_eta_max              =   5.7976100600452E+00
(PID.TID 0000.0001) %MON dynstat_eta_min              =  -1.4192778246708E+01
(PID.TID 0000.0001) %MON dynstat_eta_mean             =  -2.5046182609136E+00
(PID.TID 0000.0001) %MON dynstat_eta_sd               =   4.9501336737772E+00
(PID.TID 0000.0001) %MON dynstat_eta_del2             =   2.0714373623393E-01
(PID.TID 0000.0001) %MON dynstat_uvel_max             =   2.1224161799154E-03
(PID.TID 0000.0001) %MON dynstat_uvel_min             =  -9.4668829428137E-03
(PID.TID 0000.0001) %MON dynstat_uvel_mean            =  -1.1743182320572E-07
(PID.TID 0000.0001) %MON dynstat_uvel_sd              =   2.9680358790555E-04
(PID.TID 0000.0001) %MON dynstat_uvel_del2            =   5.0158380789369E-07
(PID.TID 0000.0001) %MON dynstat_vvel_max             =   7.7740497257182E-03
(PID.TID 0000.0001) %MON dynstat_vvel_min             =  -3.9134423707692E-03
(PID.TID 0000.0001) %MON dynstat_vvel_mean            =   1.4973573923357E-05
(PID.TID 0000.0001) %MON dynstat_vvel_sd              =   2.0978719484328E-04
(PID.TID 0000.0001) %MON dynstat_vvel_del2            =   4.5667235665049E-07
(PID.TID 0000.0001) %MON dynstat_wvel_max             =   3.4014542597911E-04
(PID.TID 0000.0001) %MON dynstat_wvel_min             =  -3.5510708929383E-04
(PID.TID 0000.0001) %MON dynstat_wvel_mean            =   6.6437893657299E-09
(PID.TID 0000.0001) %MON dynstat_wvel_sd              =   1.6673195448675E-05
(PID.TID 0000.0001) %MON dynstat_wvel_del2            =   6.4892066425759E-08
(PID.TID 0000.0001) %MON dynstat_theta_max            =   1.2000000000000E+00
(PID.TID 0000.0001) %MON dynstat_theta_min            =  -1.0000000000000E+00
(PID.TID 0000.0001) %MON dynstat_theta_mean           =   5.6893956529383E-01
(PID.TID 0000.0001) %MON dynstat_theta_sd             =   8.6849650434411E-01
(PID.TID 0000.0001) %MON dynstat_theta_del2           =   1.4276566652830E-06
(PID.TID 0000.0001) %MON dynstat_salt_max             =   3.4700000000000E+01
(PID.TID 0000.0001) %MON dynstat_salt_min             =   3.4000000000000E+01
(PID.TID 0000.0001) %MON dynstat_salt_mean            =   3.4499189988825E+01
(PID.TID 0000.0001) %MON dynstat_salt_sd              =   2.7633406249021E-01
(PID.TID 0000.0001) %MON dynstat_salt_del2            =   5.4976118600653E-07
(PID.TID 0000.0001) %MON advcfl_uvel_max              =   9.4668829428137E-04
(PID.TID 0000.0001) %MON advcfl_vvel_max              =   7.7740497257182E-04
(PID.TID 0000.0001) %MON advcfl_wvel_max              =   1.7755354464691E-03
(PID.TID 0000.0001) %MON advcfl_W_hf_max              =   1.7755354464691E-03
(PID.TID 0000.0001) %MON pe_b_mean                    =  -8.3010859018954E-01
(PID.TID 0000.0001) %MON ke_max                       =   2.6485408063537E-05
(PID.TID 0000.0001) %MON ke_mean                      =   6.5288221456917E-08
(PID.TID 0000.0001) %MON ke_vol                       =   4.2725026433119E+12
(PID.TID 0000.0001) // =======================================================
(PID.TID 0000.0001) // End MONITOR dynamic field statistics
(PID.TID 0000.0001) // =======================================================
(PID.TID 0000.0001) // =======================================================
(PID.TID 0000.0001) // Begin OBCS MONITOR field statistics
(PID.TID 0000.0001) // =======================================================
(PID.TID 0000.0001) %MON obc_N_vVel_max               =   1.4735865618667E-05
(PID.TID 0000.0001) %MON obc_N_vVel_min               =   1.4735865618667E-05
(PID.TID 0000.0001) %MON obc_N_vVel_mean              =   1.4735865618667E-05
(PID.TID 0000.0001) %MON obc_N_vVel_sd                =   3.5516903498804E-12
(PID.TID 0000.0001) %MON obc_N_vVel_Int               =   9.7256713083202E+02
(PID.TID 0000.0001) // =======================================================
(PID.TID 0000.0001) // End OBCS MONITOR field statistics
(PID.TID 0000.0001) // =======================================================
 cg2d: Sum(rhs),rhsMax =   4.50969791176827E+00  2.99909389452251E+02
(PID.TID 0000.0001)      cg2d_init_res =   5.90712015486668E-06
(PID.TID 0000.0001)      cg2d_iters(min,last) =      -1      78
(PID.TID 0000.0001)      cg2d_last_res =   8.32908905244101E-12
(PID.TID 0000.0001) // =======================================================
(PID.TID 0000.0001) // Begin MONITOR dynamic field statistics
(PID.TID 0000.0001) // =======================================================
(PID.TID 0000.0001) %MON time_tsnumber                =                   723
(PID.TID 0000.0001) %MON time_secondsf                =   7.2300000000000E+04
(PID.TID 0000.0001) %MON dynstat_eta_max              =   5.7975997783218E+00
(PID.TID 0000.0001) %MON dynstat_eta_min              =  -1.4192802866255E+01
(PID.TID 0000.0001) %MON dynstat_eta_mean             =  -2.5046310135787E+00
(PID.TID 0000.0001) %MON dynstat_eta_sd               =   4.9501379664373E+00
(PID.TID 0000.0001) %MON dynstat_eta_del2             =   2.0714374996300E-01
(PID.TID 0000.0001) %MON dynstat_uvel_max             =   2.1286891262307E-03
(PID.TID 0000.0001) %MON dynstat_uvel_min             =  -9.4950573647523E-03
(PID.TID 0000.0001) %MON dynstat_uvel_mean            =  -1.1743261015450E-07
(PID.TID 0000.0001) %MON dynstat_uvel_sd              =   2.9745964958979E-04
(PID.TID 0000.0001) %MON dynstat_uvel_del2            =   5.0252585721298E-07
(PID.TID 0000.0001) %MON dynstat_vvel_max             =   7.7966493017056E-03
(PID.TID 0000.0001) %MON dynstat_vvel_min             =  -3.9225046110429E-03
(PID.TID 0000.0001) %MON dynstat_vvel_mean            =   1.4974188685876E-05
(PID.TID 0000.0001) %MON dynstat_vvel_sd              =   2.1023226707061E-04
(PID.TID 0000.0001) %MON dynstat_vvel_del2            =   4.5833606311832E-07
(PID.TID 0000.0001) %MON dynstat_wvel_max             =   3.4130793796127E-04
(PID.TID 0000.0001) %MON dynstat_wvel_min             =  -3.5615127493608E-04
(PID.TID 0000.0001) %MON dynstat_wvel_mean            =   6.6449492381054E-09
(PID.TID 0000.0001) %MON dynstat_wvel_sd              =   1.6925840188384E-05
(PID.TID 0000.0001) %MON dynstat_wvel_del2            =   6.6976071090677E-08
(PID.TID 0000.0001) %MON dynstat_theta_max            =   1.2000000000000E+00
(PID.TID 0000.0001) %MON dynstat_theta_min            =  -1.0000000000000E+00
(PID.TID 0000.0001) %MON dynstat_theta_mean           =   5.6893913283221E-01
(PID.TID 0000.0001) %MON dynstat_theta_sd             =   8.6849626784573E-01
(PID.TID 0000.0001) %MON dynstat_theta_del2           =   1.4284441458284E-06
(PID.TID 0000.0001) %MON dynstat_salt_max             =   3.4700000000000E+01
(PID.TID 0000.0001) %MON dynstat_salt_min             =   3.4000000000000E+01
(PID.TID 0000.0001) %MON dynstat_salt_mean            =   3.4499189816082E+01
(PID.TID 0000.0001) %MON dynstat_salt_sd              =   2.7633397298717E-01
(PID.TID 0000.0001) %MON dynstat_salt_del2            =   5.5032206256789E-07
(PID.TID 0000.0001) %MON advcfl_uvel_max              =   9.4950573647523E-04
(PID.TID 0000.0001) %MON advcfl_vvel_max              =   7.7966493017056E-04
(PID.TID 0000.0001) %MON advcfl_wvel_max              =   1.7807563746804E-03
(PID.TID 0000.0001) %MON advcfl_W_hf_max              =   1.7807563746804E-03
(PID.TID 0000.0001) %MON pe_b_mean                    =  -8.3011217200365E-01
(PID.TID 0000.0001) %MON ke_max                       =   2.6629311071029E-05
(PID.TID 0000.0001) %MON ke_mean                      =   6.5572766562989E-08
(PID.TID 0000.0001) %MON ke_vol                       =   4.2725025675302E+12
(PID.TID 0000.0001) // =======================================================
(PID.TID 0000.0001) // End MONITOR dynamic field statistics
(PID.TID 0000.0001) // =======================================================
(PID.TID 0000.0001) // =======================================================
(PID.TID 0000.0001) // Begin OBCS MONITOR field statistics
(PID.TID 0000.0001) // =======================================================
(PID.TID 0000.0001) %MON obc_N_vVel_max               =   1.4736339071615E-05
(PID.TID 0000.0001) %MON obc_N_vVel_min               =   1.4736339071615E-05
(PID.TID 0000.0001) %MON obc_N_vVel_mean              =   1.4736339071615E-05
(PID.TID 0000.0001) %MON obc_N_vVel_sd                =  -1.3183191012564E-23
(PID.TID 0000.0001) %MON obc_N_vVel_Int               =   9.7259837872660E+02
(PID.TID 0000.0001) // =======================================================
(PID.TID 0000.0001) // End OBCS MONITOR field statistics
(PID.TID 0000.0001) // =======================================================
 cg2d: Sum(rhs),rhsMax =   4.50971972192534E+00  2.99909465410063E+02
(PID.TID 0000.0001)      cg2d_init_res =   5.92737518829572E-06
(PID.TID 0000.0001)      cg2d_iters(min,last) =      -1      78
(PID.TID 0000.0001)      cg2d_last_res =   8.33787949482915E-12
(PID.TID 0000.0001) // =======================================================
(PID.TID 0000.0001) // Begin MONITOR dynamic field statistics
(PID.TID 0000.0001) // =======================================================
(PID.TID 0000.0001) %MON time_tsnumber                =                   724
(PID.TID 0000.0001) %MON time_secondsf                =   7.2400000000000E+04
(PID.TID 0000.0001) %MON dynstat_eta_max              =   5.7975895163316E+00
(PID.TID 0000.0001) %MON dynstat_eta_min              =  -1.4192827486724E+01
(PID.TID 0000.0001) %MON dynstat_eta_mean             =  -2.5046437610219E+00
(PID.TID 0000.0001) %MON dynstat_eta_sd               =   4.9501422578110E+00
(PID.TID 0000.0001) %MON dynstat_eta_del2             =   2.0714376372409E-01
(PID.TID 0000.0001) %MON dynstat_uvel_max             =   2.1349771712202E-03
(PID.TID 0000.0001) %MON dynstat_uvel_min             =  -9.5233040018137E-03
(PID.TID 0000.0001) %MON dynstat_uvel_mean            =  -1.1743277238321E-07
(PID.TID 0000.0001) %MON dynstat_uvel_sd              =   2.9811886205531E-04
(PID.TID 0000.0001) %MON dynstat_uvel_del2            =   5.0347109661968E-07
(PID.TID 0000.0001) %MON dynstat_vvel_max             =   7.8192970029627E-03
(PID.TID 0000.0001) %MON dynstat_vvel_min             =  -3.9315742100738E-03
(PID.TID 0000.0001) %MON dynstat_vvel_mean            =   1.4974801811077E-05
(PID.TID 0000.0001) %MON dynstat_vvel_sd              =   2.1067875085928E-04
(PID.TID 0000.0001) %MON dynstat_vvel_del2            =   4.5998100112948E-07
(PID.TID 0000.0001) %MON dynstat_wvel_max             =   3.4247330448219E-04
(PID.TID 0000.0001) %MON dynstat_wvel_min             =  -3.5719823991855E-04
(PID.TID 0000.0001) %MON dynstat_wvel_mean            =   6.6459920058070E-09
(PID.TID 0000.0001) %MON dynstat_wvel_sd              =   1.7172452626644E-05
(PID.TID 0000.0001) %MON dynstat_wvel_del2            =   6.9021972557475E-08
(PID.TID 0000.0001) %MON dynstat_theta_max            =   1.2000000000000E+00
(PID.TID 0000.0001) %MON dynstat_theta_min            =  -1.0000000000000E+00
(PID.TID 0000.0001) %MON dynstat_theta_mean           =   5.6893869978257E-01
(PID.TID 0000.0001) %MON dynstat_theta_sd             =   8.6849603083311E-01
(PID.TID 0000.0001) %MON dynstat_theta_del2           =   1.4292192409557E-06
(PID.TID 0000.0001) %MON dynstat_salt_max             =   3.4700000000000E+01
(PID.TID 0000.0001) %MON dynstat_salt_min             =   3.4000000000000E+01
(PID.TID 0000.0001) %MON dynstat_salt_mean            =   3.4499189643096E+01
(PID.TID 0000.0001) %MON dynstat_salt_sd              =   2.7633388328931E-01
(PID.TID 0000.0001) %MON dynstat_salt_del2            =   5.5088062801628E-07
(PID.TID 0000.0001) %MON advcfl_uvel_max              =   9.5233040018137E-04
(PID.TID 0000.0001) %MON advcfl_vvel_max              =   7.8192970029627E-04
(PID.TID 0000.0001) %MON advcfl_wvel_max              =   1.7859911995928E-03
(PID.TID 0000.0001) %MON advcfl_W_hf_max              =   1.7859911995928E-03
(PID.TID 0000.0001) %MON pe_b_mean                    =  -8.3011575194242E-01
(PID.TID 0000.0001) %MON ke_max                       =   2.6773923411078E-05
(PID.TID 0000.0001) %MON ke_mean                      =   6.5859149657830E-08
(PID.TID 0000.0001) %MON ke_vol                       =   4.2725024917793E+12
(PID.TID 0000.0001) // =======================================================
(PID.TID 0000.0001) // End MONITOR dynamic field statistics
(PID.TID 0000.0001) // =======================================================
(PID.TID 0000.0001) // =======================================================
(PID.TID 0000.0001) // Begin OBCS MONITOR field statistics
(PID.TID 0000.0001) // =======================================================
(PID.TID 0000.0001) %MON obc_N_vVel_max               =   1.4736820529630E-05
(PID.TID 0000.0001) %MON obc_N_vVel_min               =   1.4736820529629E-05
(PID.TID 0000.0001) %MON obc_N_vVel_mean              =   1.4736820529629E-05
(PID.TID 0000.0001) %MON obc_N_vVel_sd                =   1.2962293852742E-12
(PID.TID 0000.0001) %MON obc_N_vVel_Int               =   9.7263015495554E+02
(PID.TID 0000.0001) // =======================================================
(PID.TID 0000.0001) // End OBCS MONITOR field statistics
(PID.TID 0000.0001) // =======================================================
 cg2d: Sum(rhs),rhsMax =   4.50974152281773E+00  2.99909541353641E+02
(PID.TID 0000.0001)      cg2d_init_res =   5.94686463230731E-06
(PID.TID 0000.0001)      cg2d_iters(min,last) =      -1      78
(PID.TID 0000.0001)      cg2d_last_res =   8.34709797141372E-12
(PID.TID 0000.0001) // =======================================================
(PID.TID 0000.0001) // Begin MONITOR dynamic field statistics
(PID.TID 0000.0001) // =======================================================
(PID.TID 0000.0001) %MON time_tsnumber                =                   725
(PID.TID 0000.0001) %MON time_secondsf                =   7.2500000000000E+04
(PID.TID 0000.0001) %MON dynstat_eta_max              =   5.7975792741281E+00
(PID.TID 0000.0001) %MON dynstat_eta_min              =  -1.4192852108089E+01
(PID.TID 0000.0001) %MON dynstat_eta_mean             =  -2.5046565032069E+00
(PID.TID 0000.0001) %MON dynstat_eta_sd               =   4.9501465478739E+00
(PID.TID 0000.0001) %MON dynstat_eta_del2             =   2.0714377751728E-01
(PID.TID 0000.0001) %MON dynstat_uvel_max             =   2.1412803503189E-03
(PID.TID 0000.0001) %MON dynstat_uvel_min             =  -9.5516229358523E-03
(PID.TID 0000.0001) %MON dynstat_uvel_mean            =  -1.1743221375005E-07
(PID.TID 0000.0001) %MON dynstat_uvel_sd              =   2.9878122422959E-04
(PID.TID 0000.0001) %MON dynstat_uvel_del2            =   5.0441955973246E-07
(PID.TID 0000.0001) %MON dynstat_vvel_max             =   7.8419928917874E-03
(PID.TID 0000.0001) %MON dynstat_vvel_min             =  -3.9406511965367E-03
(PID.TID 0000.0001) %MON dynstat_vvel_mean            =   1.4975396541637E-05
(PID.TID 0000.0001) %MON dynstat_vvel_sd              =   2.1112059244520E-04
(PID.TID 0000.0001) %MON dynstat_vvel_del2            =   4.6152733989668E-07
(PID.TID 0000.0001) %MON dynstat_wvel_max             =   3.4364153304372E-04
(PID.TID 0000.0001) %MON dynstat_wvel_min             =  -3.5824799287854E-04
(PID.TID 0000.0001) %MON dynstat_wvel_mean            =   6.6468948996293E-09
(PID.TID 0000.0001) %MON dynstat_wvel_sd              =   1.7391927474233E-05
(PID.TID 0000.0001) %MON dynstat_wvel_del2            =   7.0860786062672E-08
(PID.TID 0000.0001) %MON dynstat_theta_max            =   1.2000000000000E+00
(PID.TID 0000.0001) %MON dynstat_theta_min            =  -1.0000000000000E+00
(PID.TID 0000.0001) %MON dynstat_theta_mean           =   5.6893826616350E-01
(PID.TID 0000.0001) %MON dynstat_theta_sd             =   8.6849579329498E-01
(PID.TID 0000.0001) %MON dynstat_theta_del2           =   1.4300716322237E-06
(PID.TID 0000.0001) %MON dynstat_salt_max             =   3.4700000000000E+01
(PID.TID 0000.0001) %MON dynstat_salt_min             =   3.4000000000000E+01
(PID.TID 0000.0001) %MON dynstat_salt_mean            =   3.4499189469872E+01
(PID.TID 0000.0001) %MON dynstat_salt_sd              =   2.7633379339306E-01
(PID.TID 0000.0001) %MON dynstat_salt_del2            =   5.5146052328604E-07
(PID.TID 0000.0001) %MON advcfl_uvel_max              =   9.5516229358523E-04
(PID.TID 0000.0001) %MON advcfl_vvel_max              =   7.8419928917874E-04
(PID.TID 0000.0001) %MON advcfl_wvel_max              =   1.7912399643927E-03
(PID.TID 0000.0001) %MON advcfl_W_hf_max              =   1.7912399643927E-03
(PID.TID 0000.0001) %MON pe_b_mean                    =  -8.3011932999047E-01
(PID.TID 0000.0001) %MON ke_max                       =   2.6919247851451E-05
(PID.TID 0000.0001) %MON ke_mean                      =   6.6146100196059E-08
(PID.TID 0000.0001) %MON ke_vol                       =   4.2725024160595E+12
(PID.TID 0000.0001) // =======================================================
(PID.TID 0000.0001) // End MONITOR dynamic field statistics
(PID.TID 0000.0001) // =======================================================
(PID.TID 0000.0001) // =======================================================
(PID.TID 0000.0001) // Begin OBCS MONITOR field statistics
(PID.TID 0000.0001) // =======================================================
(PID.TID 0000.0001) %MON obc_N_vVel_max               =   1.4737296029892E-05
(PID.TID 0000.0001) %MON obc_N_vVel_min               =   1.4737296029892E-05
(PID.TID 0000.0001) %MON obc_N_vVel_mean              =   1.4737296029892E-05
(PID.TID 0000.0001) %MON obc_N_vVel_sd                =   1.5504817494031E-12
(PID.TID 0000.0001) %MON obc_N_vVel_Int               =   9.7266153797286E+02
(PID.TID 0000.0001) // =======================================================
(PID.TID 0000.0001) // End OBCS MONITOR field statistics
(PID.TID 0000.0001) // =======================================================
 cg2d: Sum(rhs),rhsMax =   4.50976331437431E+00  2.99909617281625E+02
(PID.TID 0000.0001)      cg2d_init_res =   5.96402883470800E-06
(PID.TID 0000.0001)      cg2d_iters(min,last) =      -1      78
(PID.TID 0000.0001)      cg2d_last_res =   8.35731827674996E-12
(PID.TID 0000.0001) // =======================================================
(PID.TID 0000.0001) // Begin MONITOR dynamic field statistics
(PID.TID 0000.0001) // =======================================================
(PID.TID 0000.0001) %MON time_tsnumber                =                   726
(PID.TID 0000.0001) %MON time_secondsf                =   7.2600000000000E+04
(PID.TID 0000.0001) %MON dynstat_eta_max              =   5.7975690517977E+00
(PID.TID 0000.0001) %MON dynstat_eta_min              =  -1.4192876730285E+01
(PID.TID 0000.0001) %MON dynstat_eta_mean             =  -2.5046692400828E+00
(PID.TID 0000.0001) %MON dynstat_eta_sd               =   4.9501508366008E+00
(PID.TID 0000.0001) %MON dynstat_eta_del2             =   2.0714379134282E-01
(PID.TID 0000.0001) %MON dynstat_uvel_max             =   2.1475986987589E-03
(PID.TID 0000.0001) %MON dynstat_uvel_min             =  -9.5800142479447E-03
(PID.TID 0000.0001) %MON dynstat_uvel_mean            =  -1.1743086296616E-07
(PID.TID 0000.0001) %MON dynstat_uvel_sd              =   2.9944673115049E-04
(PID.TID 0000.0001) %MON dynstat_uvel_del2            =   5.0537124145894E-07
(PID.TID 0000.0001) %MON dynstat_vvel_max             =   7.8647370302050E-03
(PID.TID 0000.0001) %MON dynstat_vvel_min             =  -3.9497355991651E-03
(PID.TID 0000.0001) %MON dynstat_vvel_mean            =   1.4975956865823E-05
(PID.TID 0000.0001) %MON dynstat_vvel_sd              =   2.1155242741970E-04
(PID.TID 0000.0001) %MON dynstat_vvel_del2            =   4.6290528089546E-07
(PID.TID 0000.0001) %MON dynstat_wvel_max             =   3.4481263102920E-04
(PID.TID 0000.0001) %MON dynstat_wvel_min             =  -3.5930054244010E-04
(PID.TID 0000.0001) %MON dynstat_wvel_mean            =   6.6476397776422E-09
(PID.TID 0000.0001) %MON dynstat_wvel_sd              =   1.7566469457930E-05
(PID.TID 0000.0001) %MON dynstat_wvel_del2            =   7.2353702184985E-08
(PID.TID 0000.0001) %MON dynstat_theta_max            =   1.2000000000000E+00
(PID.TID 0000.0001) %MON dynstat_theta_min            =  -1.0000000000000E+00
(PID.TID 0000.0001) %MON dynstat_theta_mean           =   5.6893783199087E-01
(PID.TID 0000.0001) %MON dynstat_theta_sd             =   8.6849555522774E-01
(PID.TID 0000.0001) %MON dynstat_theta_del2           =   1.4310809936902E-06
(PID.TID 0000.0001) %MON dynstat_salt_max             =   3.4700000000000E+01
(PID.TID 0000.0001) %MON dynstat_salt_min             =   3.4000000000000E+01
(PID.TID 0000.0001) %MON dynstat_salt_mean            =   3.4499189296414E+01
(PID.TID 0000.0001) %MON dynstat_salt_sd              =   2.7633370329712E-01
(PID.TID 0000.0001) %MON dynstat_salt_del2            =   5.5208263416476E-07
(PID.TID 0000.0001) %MON advcfl_uvel_max              =   9.5800142479447E-04
(PID.TID 0000.0001) %MON advcfl_vvel_max              =   7.8647370302050E-04
(PID.TID 0000.0001) %MON advcfl_wvel_max              =   1.7965027122005E-03
(PID.TID 0000.0001) %MON advcfl_W_hf_max              =   1.7965027122005E-03
(PID.TID 0000.0001) %MON pe_b_mean                    =  -8.3012290612871E-01
(PID.TID 0000.0001) %MON ke_max                       =   2.7065287164854E-05
(PID.TID 0000.0001) %MON ke_mean                      =   6.6432481696547E-08
(PID.TID 0000.0001) %MON ke_vol                       =   4.2725023403710E+12
(PID.TID 0000.0001) // =======================================================
(PID.TID 0000.0001) // End MONITOR dynamic field statistics
(PID.TID 0000.0001) // =======================================================
(PID.TID 0000.0001) // =======================================================
(PID.TID 0000.0001) // Begin OBCS MONITOR field statistics
(PID.TID 0000.0001) // =======================================================
(PID.TID 0000.0001) %MON obc_N_vVel_max               =   1.4737751972092E-05
(PID.TID 0000.0001) %MON obc_N_vVel_min               =   1.4737751972092E-05
(PID.TID 0000.0001) %MON obc_N_vVel_mean              =   1.4737751972092E-05
(PID.TID 0000.0001) %MON obc_N_vVel_sd                =  -9.5642758326444E-24
(PID.TID 0000.0001) %MON obc_N_vVel_Int               =   9.7269163015806E+02
(PID.TID 0000.0001) // =======================================================
(PID.TID 0000.0001) // End OBCS MONITOR field statistics
(PID.TID 0000.0001) // =======================================================
 cg2d: Sum(rhs),rhsMax =   4.50978509649421E+00  2.99909693192889E+02
(PID.TID 0000.0001)      cg2d_init_res =   5.97751817238245E-06
(PID.TID 0000.0001)      cg2d_iters(min,last) =      -1      78
(PID.TID 0000.0001)      cg2d_last_res =   8.36900821848613E-12
(PID.TID 0000.0001) // =======================================================
(PID.TID 0000.0001) // Begin MONITOR dynamic field statistics
(PID.TID 0000.0001) // =======================================================
(PID.TID 0000.0001) %MON time_tsnumber                =                   727
(PID.TID 0000.0001) %MON time_secondsf                =   7.2700000000000E+04
(PID.TID 0000.0001) %MON dynstat_eta_max              =   5.7975588494621E+00
(PID.TID 0000.0001) %MON dynstat_eta_min              =  -1.4192901353214E+01
(PID.TID 0000.0001) %MON dynstat_eta_mean             =  -2.5046819715842E+00
(PID.TID 0000.0001) %MON dynstat_eta_sd               =   4.9501551239605E+00
(PID.TID 0000.0001) %MON dynstat_eta_del2             =   2.0714380520090E-01
(PID.TID 0000.0001) %MON dynstat_uvel_max             =   2.1539322516304E-03
(PID.TID 0000.0001) %MON dynstat_uvel_min             =  -9.6084780182863E-03
(PID.TID 0000.0001) %MON dynstat_uvel_mean            =  -1.1742868215911E-07
(PID.TID 0000.0001) %MON dynstat_uvel_sd              =   3.0011537384673E-04
(PID.TID 0000.0001) %MON dynstat_uvel_del2            =   5.0632609245138E-07
(PID.TID 0000.0001) %MON dynstat_vvel_max             =   7.8875294807199E-03
(PID.TID 0000.0001) %MON dynstat_vvel_min             =  -3.9588274466862E-03
(PID.TID 0000.0001) %MON dynstat_vvel_mean            =   1.4976468042159E-05
(PID.TID 0000.0001) %MON dynstat_vvel_sd              =   2.1197000869472E-04
(PID.TID 0000.0001) %MON dynstat_vvel_del2            =   4.6406047103479E-07
(PID.TID 0000.0001) %MON dynstat_wvel_max             =   3.4598660586761E-04
(PID.TID 0000.0001) %MON dynstat_wvel_min             =  -3.6035589719732E-04
(PID.TID 0000.0001) %MON dynstat_wvel_mean            =   6.6482139453685E-09
(PID.TID 0000.0001) %MON dynstat_wvel_sd              =   1.7682560409282E-05
(PID.TID 0000.0001) %MON dynstat_wvel_del2            =   7.3395997362617E-08
(PID.TID 0000.0001) %MON dynstat_theta_max            =   1.2000000000000E+00
(PID.TID 0000.0001) %MON dynstat_theta_min            =  -1.0000000000000E+00
(PID.TID 0000.0001) %MON dynstat_theta_mean           =   5.6893739727746E-01
(PID.TID 0000.0001) %MON dynstat_theta_sd             =   8.6849531663773E-01
(PID.TID 0000.0001) %MON dynstat_theta_del2           =   1.4323108151152E-06
(PID.TID 0000.0001) %MON dynstat_salt_max             =   3.4700000000000E+01
(PID.TID 0000.0001) %MON dynstat_salt_min             =   3.4000000000000E+01
(PID.TID 0000.0001) %MON dynstat_salt_mean            =   3.4499189122727E+01
(PID.TID 0000.0001) %MON dynstat_salt_sd              =   2.7633361300357E-01
(PID.TID 0000.0001) %MON dynstat_salt_del2            =   5.5276358252698E-07
(PID.TID 0000.0001) %MON advcfl_uvel_max              =   9.6084780182863E-04
(PID.TID 0000.0001) %MON advcfl_vvel_max              =   7.8875294807199E-04
(PID.TID 0000.0001) %MON advcfl_wvel_max              =   1.8017794859866E-03
(PID.TID 0000.0001) %MON advcfl_W_hf_max              =   1.8017794859866E-03
(PID.TID 0000.0001) %MON pe_b_mean                    =  -8.3012648033433E-01
(PID.TID 0000.0001) %MON ke_max                       =   2.7212044129358E-05
(PID.TID 0000.0001) %MON ke_mean                      =   6.6717384307329E-08
(PID.TID 0000.0001) %MON ke_vol                       =   4.2725022647139E+12
(PID.TID 0000.0001) // =======================================================
(PID.TID 0000.0001) // End MONITOR dynamic field statistics
(PID.TID 0000.0001) // =======================================================
(PID.TID 0000.0001) // =======================================================
(PID.TID 0000.0001) // Begin OBCS MONITOR field statistics
(PID.TID 0000.0001) // =======================================================
(PID.TID 0000.0001) %MON obc_N_vVel_max               =   1.4738175551372E-05
(PID.TID 0000.0001) %MON obc_N_vVel_min               =   1.4738175551372E-05
(PID.TID 0000.0001) %MON obc_N_vVel_mean              =   1.4738175551372E-05
(PID.TID 0000.0001) %MON obc_N_vVel_sd                =   2.4330045743037E-12
(PID.TID 0000.0001) %MON obc_N_vVel_Int               =   9.7271958639055E+02
(PID.TID 0000.0001) // =======================================================
(PID.TID 0000.0001) // End OBCS MONITOR field statistics
(PID.TID 0000.0001) // =======================================================
 cg2d: Sum(rhs),rhsMax =   4.50980686904961E+00  2.99909769086583E+02
(PID.TID 0000.0001)      cg2d_init_res =   5.98630955474635E-06
(PID.TID 0000.0001)      cg2d_iters(min,last) =      -1      78
(PID.TID 0000.0001)      cg2d_last_res =   8.38254069609519E-12
(PID.TID 0000.0001) // =======================================================
(PID.TID 0000.0001) // Begin MONITOR dynamic field statistics
(PID.TID 0000.0001) // =======================================================
(PID.TID 0000.0001) %MON time_tsnumber                =                   728
(PID.TID 0000.0001) %MON time_secondsf                =   7.2800000000000E+04
(PID.TID 0000.0001) %MON dynstat_eta_max              =   5.7975486672708E+00
(PID.TID 0000.0001) %MON dynstat_eta_min              =  -1.4192925976765E+01
(PID.TID 0000.0001) %MON dynstat_eta_mean             =  -2.5046946976329E+00
(PID.TID 0000.0001) %MON dynstat_eta_sd               =   4.9501594099208E+00
(PID.TID 0000.0001) %MON dynstat_eta_del2             =   2.0714381909175E-01
(PID.TID 0000.0001) %MON dynstat_uvel_max             =   2.1602810437322E-03
(PID.TID 0000.0001) %MON dynstat_uvel_min             =  -9.6370143263336E-03
(PID.TID 0000.0001) %MON dynstat_uvel_mean            =  -1.1742567893615E-07
(PID.TID 0000.0001) %MON dynstat_uvel_sd              =   3.0078713938458E-04
(PID.TID 0000.0001) %MON dynstat_uvel_del2            =   5.0728401772243E-07
(PID.TID 0000.0001) %MON dynstat_vvel_max             =   7.9103703059222E-03
(PID.TID 0000.0001) %MON dynstat_vvel_min             =  -3.9679267675305E-03
(PID.TID 0000.0001) %MON dynstat_vvel_mean            =   1.4976917081793E-05
(PID.TID 0000.0001) %MON dynstat_vvel_sd              =   2.1237053258837E-04
(PID.TID 0000.0001) %MON dynstat_vvel_del2            =   4.6495802972442E-07
(PID.TID 0000.0001) %MON dynstat_wvel_max             =   3.4716346493884E-04
(PID.TID 0000.0001) %MON dynstat_wvel_min             =  -3.6141406582302E-04
(PID.TID 0000.0001) %MON dynstat_wvel_mean            =   6.6486104987145E-09
(PID.TID 0000.0001) %MON dynstat_wvel_sd              =   1.7731546100657E-05
(PID.TID 0000.0001) %MON dynstat_wvel_del2            =   7.3918416083875E-08
(PID.TID 0000.0001) %MON dynstat_theta_max            =   1.2000000000000E+00
(PID.TID 0000.0001) %MON dynstat_theta_min            =  -1.0000000000000E+00
(PID.TID 0000.0001) %MON dynstat_theta_mean           =   5.6893696203272E-01
(PID.TID 0000.0001) %MON dynstat_theta_sd             =   8.6849507753484E-01
(PID.TID 0000.0001) %MON dynstat_theta_del2           =   1.4338036943915E-06
(PID.TID 0000.0001) %MON dynstat_salt_max             =   3.4700000000000E+01
(PID.TID 0000.0001) %MON dynstat_salt_min             =   3.4000000000000E+01
(PID.TID 0000.0001) %MON dynstat_salt_mean            =   3.4499188948812E+01
(PID.TID 0000.0001) %MON dynstat_salt_sd              =   2.7633352251525E-01
(PID.TID 0000.0001) %MON dynstat_salt_del2            =   5.5351451693924E-07
(PID.TID 0000.0001) %MON advcfl_uvel_max              =   9.6370143263336E-04
(PID.TID 0000.0001) %MON advcfl_vvel_max              =   7.9103703059222E-04
(PID.TID 0000.0001) %MON advcfl_wvel_max              =   1.8070703291151E-03
(PID.TID 0000.0001) %MON advcfl_W_hf_max              =   1.8070703291151E-03
(PID.TID 0000.0001) %MON pe_b_mean                    =  -8.3013005258161E-01
(PID.TID 0000.0001) %MON ke_max                       =   2.7359521528106E-05
(PID.TID 0000.0001) %MON ke_mean                      =   6.7000196961740E-08
(PID.TID 0000.0001) %MON ke_vol                       =   4.2725021890888E+12
(PID.TID 0000.0001) // =======================================================
(PID.TID 0000.0001) // End MONITOR dynamic field statistics
(PID.TID 0000.0001) // =======================================================
(PID.TID 0000.0001) // =======================================================
(PID.TID 0000.0001) // Begin OBCS MONITOR field statistics
(PID.TID 0000.0001) // =======================================================
(PID.TID 0000.0001) %MON obc_N_vVel_max               =   1.4738555147602E-05
(PID.TID 0000.0001) %MON obc_N_vVel_min               =   1.4738555147602E-05
(PID.TID 0000.0001) %MON obc_N_vVel_mean              =   1.4738555147602E-05
(PID.TID 0000.0001) %MON obc_N_vVel_sd                =  -3.1794754795007E-24
(PID.TID 0000.0001) %MON obc_N_vVel_Int               =   9.7274463974174E+02
(PID.TID 0000.0001) // =======================================================
(PID.TID 0000.0001) // End OBCS MONITOR field statistics
(PID.TID 0000.0001) // =======================================================
 cg2d: Sum(rhs),rhsMax =   4.50982863188688E+00  2.99909844962128E+02
(PID.TID 0000.0001)      cg2d_init_res =   5.98977112974257E-06
(PID.TID 0000.0001)      cg2d_iters(min,last) =      -1      78
(PID.TID 0000.0001)      cg2d_last_res =   8.39801703487183E-12
(PID.TID 0000.0001) // =======================================================
(PID.TID 0000.0001) // Begin MONITOR dynamic field statistics
(PID.TID 0000.0001) // =======================================================
(PID.TID 0000.0001) %MON time_tsnumber                =                   729
(PID.TID 0000.0001) %MON time_secondsf                =   7.2900000000000E+04
(PID.TID 0000.0001) %MON dynstat_eta_max              =   5.7975385053956E+00
(PID.TID 0000.0001) %MON dynstat_eta_min              =  -1.4192950600794E+01
(PID.TID 0000.0001) %MON dynstat_eta_mean             =  -2.5047074181388E+00
(PID.TID 0000.0001) %MON dynstat_eta_sd               =   4.9501636944470E+00
(PID.TID 0000.0001) %MON dynstat_eta_del2             =   2.0714383301563E-01
(PID.TID 0000.0001) %MON dynstat_uvel_max             =   2.1666451097104E-03
(PID.TID 0000.0001) %MON dynstat_uvel_min             =  -9.6656232508820E-03
(PID.TID 0000.0001) %MON dynstat_uvel_mean            =  -1.1742190456938E-07
(PID.TID 0000.0001) %MON dynstat_uvel_sd              =   3.0146201110707E-04
(PID.TID 0000.0001) %MON dynstat_uvel_del2            =   5.0824487856853E-07
(PID.TID 0000.0001) %MON dynstat_vvel_max             =   7.9332595686372E-03
(PID.TID 0000.0001) %MON dynstat_vvel_min             =  -3.9770335900959E-03
(PID.TID 0000.0001) %MON dynstat_vvel_mean            =   1.4977293158944E-05
(PID.TID 0000.0001) %MON dynstat_vvel_sd              =   2.1275283901369E-04
(PID.TID 0000.0001) %MON dynstat_vvel_del2            =   4.6558495851242E-07
(PID.TID 0000.0001) %MON dynstat_wvel_max             =   3.4834321560551E-04
(PID.TID 0000.0001) %MON dynstat_wvel_min             =  -3.6247505694783E-04
(PID.TID 0000.0001) %MON dynstat_wvel_mean            =   6.6488284453411E-09
(PID.TID 0000.0001) %MON dynstat_wvel_sd              =   1.7709925027151E-05
(PID.TID 0000.0001) %MON dynstat_wvel_del2            =   7.3887351744420E-08
(PID.TID 0000.0001) %MON dynstat_theta_max            =   1.2000000000000E+00
(PID.TID 0000.0001) %MON dynstat_theta_min            =  -1.0000000000000E+00
(PID.TID 0000.0001) %MON dynstat_theta_mean           =   5.6893652626235E-01
(PID.TID 0000.0001) %MON dynstat_theta_sd             =   8.6849483793023E-01
(PID.TID 0000.0001) %MON dynstat_theta_del2           =   1.4355786976060E-06
(PID.TID 0000.0001) %MON dynstat_salt_max             =   3.4700000000000E+01
(PID.TID 0000.0001) %MON dynstat_salt_min             =   3.4000000000000E+01
(PID.TID 0000.0001) %MON dynstat_salt_mean            =   3.4499188774673E+01
(PID.TID 0000.0001) %MON dynstat_salt_sd              =   2.7633343183565E-01
(PID.TID 0000.0001) %MON dynstat_salt_del2            =   5.5434037939662E-07
(PID.TID 0000.0001) %MON advcfl_uvel_max              =   9.6656232508820E-04
(PID.TID 0000.0001) %MON advcfl_vvel_max              =   7.9332595686372E-04
(PID.TID 0000.0001) %MON advcfl_wvel_max              =   1.8123752847391E-03
(PID.TID 0000.0001) %MON advcfl_W_hf_max              =   1.8123752847391E-03
(PID.TID 0000.0001) %MON pe_b_mean                    =  -8.3013362284196E-01
(PID.TID 0000.0001) %MON ke_max                       =   2.7507722150432E-05
(PID.TID 0000.0001) %MON ke_mean                      =   6.7280653460991E-08
(PID.TID 0000.0001) %MON ke_vol                       =   4.2725021134961E+12
(PID.TID 0000.0001) // =======================================================
(PID.TID 0000.0001) // End MONITOR dynamic field statistics
(PID.TID 0000.0001) // =======================================================
(PID.TID 0000.0001) // =======================================================
(PID.TID 0000.0001) // Begin OBCS MONITOR field statistics
(PID.TID 0000.0001) // =======================================================
(PID.TID 0000.0001) %MON obc_N_vVel_max               =   1.4738880701522E-05
(PID.TID 0000.0001) %MON obc_N_vVel_min               =   1.4738880701521E-05
(PID.TID 0000.0001) %MON obc_N_vVel_mean              =   1.4738880701521E-05
(PID.TID 0000.0001) %MON obc_N_vVel_sd                =   2.9514819711374E-12
(PID.TID 0000.0001) %MON obc_N_vVel_Int               =   9.7276612630039E+02
(PID.TID 0000.0001) // =======================================================
(PID.TID 0000.0001) // End OBCS MONITOR field statistics
(PID.TID 0000.0001) // =======================================================
 cg2d: Sum(rhs),rhsMax =   4.50985038483255E+00  2.99909920819253E+02
(PID.TID 0000.0001)      cg2d_init_res =   5.98771081770785E-06
(PID.TID 0000.0001)      cg2d_iters(min,last) =      -1      78
(PID.TID 0000.0001)      cg2d_last_res =   8.41506548285318E-12
(PID.TID 0000.0001) // =======================================================
(PID.TID 0000.0001) // Begin MONITOR dynamic field statistics
(PID.TID 0000.0001) // =======================================================
(PID.TID 0000.0001) %MON time_tsnumber                =                   730
(PID.TID 0000.0001) %MON time_secondsf                =   7.3000000000000E+04
(PID.TID 0000.0001) %MON dynstat_eta_max              =   5.7975283640292E+00
(PID.TID 0000.0001) %MON dynstat_eta_min              =  -1.4192975225144E+01
(PID.TID 0000.0001) %MON dynstat_eta_mean             =  -2.5047201330033E+00
(PID.TID 0000.0001) %MON dynstat_eta_sd               =   4.9501679775038E+00
(PID.TID 0000.0001) %MON dynstat_eta_del2             =   2.0714384697277E-01
(PID.TID 0000.0001) %MON dynstat_uvel_max             =   2.1730244837279E-03
(PID.TID 0000.0001) %MON dynstat_uvel_min             =  -9.6943048701483E-03
(PID.TID 0000.0001) %MON dynstat_uvel_mean            =  -1.1741745038471E-07
(PID.TID 0000.0001) %MON dynstat_uvel_sd              =   3.0213996910770E-04
(PID.TID 0000.0001) %MON dynstat_uvel_del2            =   5.0920849698107E-07
(PID.TID 0000.0001) %MON dynstat_vvel_max             =   7.9561973319602E-03
(PID.TID 0000.0001) %MON dynstat_vvel_min             =  -3.9861479424435E-03
(PID.TID 0000.0001) %MON dynstat_vvel_mean            =   1.4977587947526E-05
(PID.TID 0000.0001) %MON dynstat_vvel_sd              =   2.1311747232163E-04
(PID.TID 0000.0001) %MON dynstat_vvel_del2            =   4.6595081520621E-07
(PID.TID 0000.0001) %MON dynstat_wvel_max             =   3.4952586520903E-04
(PID.TID 0000.0001) %MON dynstat_wvel_min             =  -3.6353887919546E-04
(PID.TID 0000.0001) %MON dynstat_wvel_mean            =   6.6488727865191E-09
(PID.TID 0000.0001) %MON dynstat_wvel_sd              =   1.7619399175855E-05
(PID.TID 0000.0001) %MON dynstat_wvel_del2            =   7.3304550943585E-08
(PID.TID 0000.0001) %MON dynstat_theta_max            =   1.2000000000000E+00
(PID.TID 0000.0001) %MON dynstat_theta_min            =  -1.0000000000000E+00
(PID.TID 0000.0001) %MON dynstat_theta_mean           =   5.6893608996834E-01
(PID.TID 0000.0001) %MON dynstat_theta_sd             =   8.6849459783105E-01
(PID.TID 0000.0001) %MON dynstat_theta_del2           =   1.4376307612608E-06
(PID.TID 0000.0001) %MON dynstat_salt_max             =   3.4700000000000E+01
(PID.TID 0000.0001) %MON dynstat_salt_min             =   3.4000000000000E+01
(PID.TID 0000.0001) %MON dynstat_salt_mean            =   3.4499188600308E+01
(PID.TID 0000.0001) %MON dynstat_salt_sd              =   2.7633334096691E-01
(PID.TID 0000.0001) %MON dynstat_salt_del2            =   5.5523973719228E-07
(PID.TID 0000.0001) %MON advcfl_uvel_max              =   9.6943048701483E-04
(PID.TID 0000.0001) %MON advcfl_vvel_max              =   7.9561973319602E-04
(PID.TID 0000.0001) %MON advcfl_wvel_max              =   1.8176943959773E-03
(PID.TID 0000.0001) %MON advcfl_W_hf_max              =   1.8176943959773E-03
(PID.TID 0000.0001) %MON pe_b_mean                    =  -8.3013719108511E-01
(PID.TID 0000.0001) %MON ke_max                       =   2.7656648791880E-05
(PID.TID 0000.0001) %MON ke_mean                      =   6.7558849058470E-08
(PID.TID 0000.0001) %MON ke_vol                       =   4.2725020379363E+12
(PID.TID 0000.0001) // =======================================================
(PID.TID 0000.0001) // End MONITOR dynamic field statistics
(PID.TID 0000.0001) // =======================================================
(PID.TID 0000.0001) // =======================================================
(PID.TID 0000.0001) // Begin OBCS MONITOR field statistics
(PID.TID 0000.0001) // =======================================================
(PID.TID 0000.0001) %MON obc_N_vVel_max               =   1.4739144029152E-05
(PID.TID 0000.0001) %MON obc_N_vVel_min               =   1.4739144029152E-05
(PID.TID 0000.0001) %MON obc_N_vVel_mean              =   1.4739144029152E-05
(PID.TID 0000.0001) %MON obc_N_vVel_sd                =  -9.0731373439410E-24
(PID.TID 0000.0001) %MON obc_N_vVel_Int               =   9.7278350592405E+02
(PID.TID 0000.0001) // =======================================================
(PID.TID 0000.0001) // End OBCS MONITOR field statistics
(PID.TID 0000.0001) // =======================================================
 cg2d: Sum(rhs),rhsMax =   4.50987212769831E+00  2.99909996657947E+02
(PID.TID 0000.0001)      cg2d_init_res =   5.98038772764953E-06
(PID.TID 0000.0001)      cg2d_iters(min,last) =      -1      78
(PID.TID 0000.0001)      cg2d_last_res =   8.43301744985267E-12
(PID.TID 0000.0001) // =======================================================
(PID.TID 0000.0001) // Begin MONITOR dynamic field statistics
(PID.TID 0000.0001) // =======================================================
(PID.TID 0000.0001) %MON time_tsnumber                =                   731
(PID.TID 0000.0001) %MON time_secondsf                =   7.3100000000000E+04
(PID.TID 0000.0001) %MON dynstat_eta_max              =   5.7975182433719E+00
(PID.TID 0000.0001) %MON dynstat_eta_min              =  -1.4192999849652E+01
(PID.TID 0000.0001) %MON dynstat_eta_mean             =  -2.5047328421218E+00
(PID.TID 0000.0001) %MON dynstat_eta_sd               =   4.9501722590571E+00
(PID.TID 0000.0001) %MON dynstat_eta_del2             =   2.0714386096345E-01
(PID.TID 0000.0001) %MON dynstat_uvel_max             =   2.1794191997380E-03
(PID.TID 0000.0001) %MON dynstat_uvel_min             =  -9.7230592615958E-03
(PID.TID 0000.0001) %MON dynstat_uvel_mean            =  -1.1741243863192E-07
(PID.TID 0000.0001) %MON dynstat_uvel_sd              =   3.0282099089540E-04
(PID.TID 0000.0001) %MON dynstat_uvel_del2            =   5.1017466281976E-07
(PID.TID 0000.0001) %MON dynstat_vvel_max             =   7.9791836592009E-03
(PID.TID 0000.0001) %MON dynstat_vvel_min             =  -3.9952698525747E-03
(PID.TID 0000.0001) %MON dynstat_vvel_mean            =   1.4977795853382E-05
(PID.TID 0000.0001) %MON dynstat_vvel_sd              =   2.1346660064122E-04
(PID.TID 0000.0001) %MON dynstat_vvel_del2            =   4.6608664008883E-07
(PID.TID 0000.0001) %MON dynstat_wvel_max             =   3.5071142108088E-04
(PID.TID 0000.0001) %MON dynstat_wvel_min             =  -3.6460554127510E-04
(PID.TID 0000.0001) %MON dynstat_wvel_mean            =   6.6487541598410E-09
(PID.TID 0000.0001) %MON dynstat_wvel_sd              =   1.7466715270800E-05
(PID.TID 0000.0001) %MON dynstat_wvel_del2            =   7.2206636608363E-08
(PID.TID 0000.0001) %MON dynstat_theta_max            =   1.2000000000000E+00
(PID.TID 0000.0001) %MON dynstat_theta_min            =  -1.0000000000000E+00
(PID.TID 0000.0001) %MON dynstat_theta_mean           =   5.6893565314894E-01
(PID.TID 0000.0001) %MON dynstat_theta_sd             =   8.6849435724337E-01
(PID.TID 0000.0001) %MON dynstat_theta_del2           =   1.4399315721905E-06
(PID.TID 0000.0001) %MON dynstat_salt_max             =   3.4700000000000E+01
(PID.TID 0000.0001) %MON dynstat_salt_min             =   3.4000000000000E+01
(PID.TID 0000.0001) %MON dynstat_salt_mean            =   3.4499188425717E+01
(PID.TID 0000.0001) %MON dynstat_salt_sd              =   2.7633324991079E-01
(PID.TID 0000.0001) %MON dynstat_salt_del2            =   5.5620512550111E-07
(PID.TID 0000.0001) %MON advcfl_uvel_max              =   9.7230592615958E-04
(PID.TID 0000.0001) %MON advcfl_vvel_max              =   7.9791836592009E-04
(PID.TID 0000.0001) %MON advcfl_wvel_max              =   1.8230277063755E-03
(PID.TID 0000.0001) %MON advcfl_W_hf_max              =   1.8230277063755E-03
(PID.TID 0000.0001) %MON pe_b_mean                    =  -8.3014075727984E-01
(PID.TID 0000.0001) %MON ke_max                       =   2.7806304253632E-05
(PID.TID 0000.0001) %MON ke_mean                      =   6.7835226596783E-08
(PID.TID 0000.0001) %MON ke_vol                       =   4.2725019624100E+12
(PID.TID 0000.0001) // =======================================================
(PID.TID 0000.0001) // End MONITOR dynamic field statistics
(PID.TID 0000.0001) // =======================================================
(PID.TID 0000.0001) // =======================================================
(PID.TID 0000.0001) // Begin OBCS MONITOR field statistics
(PID.TID 0000.0001) // =======================================================
(PID.TID 0000.0001) %MON obc_N_vVel_max               =   1.4739339049557E-05
(PID.TID 0000.0001) %MON obc_N_vVel_min               =   1.4739339049557E-05
(PID.TID 0000.0001) %MON obc_N_vVel_mean              =   1.4739339049557E-05
(PID.TID 0000.0001) %MON obc_N_vVel_sd                =   7.1901869436451E-13
(PID.TID 0000.0001) %MON obc_N_vVel_Int               =   9.7279637727079E+02
(PID.TID 0000.0001) // =======================================================
(PID.TID 0000.0001) // End OBCS MONITOR field statistics
(PID.TID 0000.0001) // =======================================================
 cg2d: Sum(rhs),rhsMax =   4.50989386028308E+00  2.99910072478469E+02
(PID.TID 0000.0001)      cg2d_init_res =   5.96848939712844E-06
(PID.TID 0000.0001)      cg2d_iters(min,last) =      -1      78
(PID.TID 0000.0001)      cg2d_last_res =   8.45101650491468E-12
(PID.TID 0000.0001) // =======================================================
(PID.TID 0000.0001) // Begin MONITOR dynamic field statistics
(PID.TID 0000.0001) // =======================================================
(PID.TID 0000.0001) %MON time_tsnumber                =                   732
(PID.TID 0000.0001) %MON time_secondsf                =   7.3200000000000E+04
(PID.TID 0000.0001) %MON dynstat_eta_max              =   5.7975081436332E+00
(PID.TID 0000.0001) %MON dynstat_eta_min              =  -1.4193024474140E+01
(PID.TID 0000.0001) %MON dynstat_eta_mean             =  -2.5047455453846E+00
(PID.TID 0000.0001) %MON dynstat_eta_sd               =   4.9501765390706E+00
(PID.TID 0000.0001) %MON dynstat_eta_del2             =   2.0714387498782E-01
(PID.TID 0000.0001) %MON dynstat_uvel_max             =   2.1858292913208E-03
(PID.TID 0000.0001) %MON dynstat_uvel_min             =  -9.7518865020341E-03
(PID.TID 0000.0001) %MON dynstat_uvel_mean            =  -1.1740702598942E-07
(PID.TID 0000.0001) %MON dynstat_uvel_sd              =   3.0350505221645E-04
(PID.TID 0000.0001) %MON dynstat_uvel_del2            =   5.1114314402780E-07
(PID.TID 0000.0001) %MON dynstat_vvel_max             =   8.0022186132398E-03
(PID.TID 0000.0001) %MON dynstat_vvel_min             =  -4.0043993479895E-03
(PID.TID 0000.0001) %MON dynstat_vvel_mean            =   1.4977914162174E-05
(PID.TID 0000.0001) %MON dynstat_vvel_sd              =   2.1380380273758E-04
(PID.TID 0000.0001) %MON dynstat_vvel_del2            =   4.6604222044838E-07
(PID.TID 0000.0001) %MON dynstat_wvel_max             =   3.5189989040007E-04
(PID.TID 0000.0001) %MON dynstat_wvel_min             =  -3.6567505183119E-04
(PID.TID 0000.0001) %MON dynstat_wvel_mean            =   6.6484884594254E-09
(PID.TID 0000.0001) %MON dynstat_wvel_sd              =   1.7263292825752E-05
(PID.TID 0000.0001) %MON dynstat_wvel_del2            =   7.0664433889534E-08
(PID.TID 0000.0001) %MON dynstat_theta_max            =   1.2000000000000E+00
(PID.TID 0000.0001) %MON dynstat_theta_min            =  -1.0000000000000E+00
(PID.TID 0000.0001) %MON dynstat_theta_mean           =   5.6893521579862E-01
(PID.TID 0000.0001) %MON dynstat_theta_sd             =   8.6849411617653E-01
(PID.TID 0000.0001) %MON dynstat_theta_del2           =   1.4424331947050E-06
(PID.TID 0000.0001) %MON dynstat_salt_max             =   3.4700000000000E+01
(PID.TID 0000.0001) %MON dynstat_salt_min             =   3.4000000000000E+01
(PID.TID 0000.0001) %MON dynstat_salt_mean            =   3.4499188250898E+01
(PID.TID 0000.0001) %MON dynstat_salt_sd              =   2.7633315867030E-01
(PID.TID 0000.0001) %MON dynstat_salt_del2            =   5.5722395991695E-07
(PID.TID 0000.0001) %MON advcfl_uvel_max              =   9.7518865020341E-04
(PID.TID 0000.0001) %MON advcfl_vvel_max              =   8.0022186132398E-04
(PID.TID 0000.0001) %MON advcfl_wvel_max              =   1.8283752591559E-03
(PID.TID 0000.0001) %MON advcfl_W_hf_max              =   1.8283752591559E-03
(PID.TID 0000.0001) %MON pe_b_mean                    =  -8.3014432139412E-01
(PID.TID 0000.0001) %MON ke_max                       =   2.7956691343979E-05
(PID.TID 0000.0001) %MON ke_mean                      =   6.8110533797419E-08
(PID.TID 0000.0001) %MON ke_vol                       =   4.2725018869178E+12
(PID.TID 0000.0001) // =======================================================
(PID.TID 0000.0001) // End MONITOR dynamic field statistics
(PID.TID 0000.0001) // =======================================================
(PID.TID 0000.0001) // =======================================================
(PID.TID 0000.0001) // Begin OBCS MONITOR field statistics
(PID.TID 0000.0001) // =======================================================
(PID.TID 0000.0001) %MON obc_N_vVel_max               =   1.4739461960940E-05
(PID.TID 0000.0001) %MON obc_N_vVel_min               =   1.4739461960939E-05
(PID.TID 0000.0001) %MON obc_N_vVel_mean              =   1.4739461960940E-05
(PID.TID 0000.0001) %MON obc_N_vVel_sd                =  -2.1480846532236E-23
(PID.TID 0000.0001) %MON obc_N_vVel_Int               =   9.7280448942203E+02
(PID.TID 0000.0001) // =======================================================
(PID.TID 0000.0001) // End OBCS MONITOR field statistics
(PID.TID 0000.0001) // =======================================================
 cg2d: Sum(rhs),rhsMax =   4.50991558237840E+00  2.99910148281345E+02
(PID.TID 0000.0001)      cg2d_init_res =   5.95307219523920E-06
(PID.TID 0000.0001)      cg2d_iters(min,last) =      -1      78
(PID.TID 0000.0001)      cg2d_last_res =   8.46821438250679E-12
(PID.TID 0000.0001) // =======================================================
(PID.TID 0000.0001) // Begin MONITOR dynamic field statistics
(PID.TID 0000.0001) // =======================================================
(PID.TID 0000.0001) %MON time_tsnumber                =                   733
(PID.TID 0000.0001) %MON time_secondsf                =   7.3300000000000E+04
(PID.TID 0000.0001) %MON dynstat_eta_max              =   5.7974980650168E+00
(PID.TID 0000.0001) %MON dynstat_eta_min              =  -1.4193049098437E+01
(PID.TID 0000.0001) %MON dynstat_eta_mean             =  -2.5047582426805E+00
(PID.TID 0000.0001) %MON dynstat_eta_sd               =   4.9501808175101E+00
(PID.TID 0000.0001) %MON dynstat_eta_del2             =   2.0714388904610E-01
(PID.TID 0000.0001) %MON dynstat_uvel_max             =   2.1922547918010E-03
(PID.TID 0000.0001) %MON dynstat_uvel_min             =  -9.7807866676654E-03
(PID.TID 0000.0001) %MON dynstat_uvel_mean            =  -1.1740139956567E-07
(PID.TID 0000.0001) %MON dynstat_uvel_sd              =   3.0419212801490E-04
(PID.TID 0000.0001) %MON dynstat_uvel_del2            =   5.1211369814809E-07
(PID.TID 0000.0001) %MON dynstat_vvel_max             =   8.0253022582104E-03
(PID.TID 0000.0001) %MON dynstat_vvel_min             =  -4.0135364560516E-03
(PID.TID 0000.0001) %MON dynstat_vvel_mean            =   1.4977943093081E-05
(PID.TID 0000.0001) %MON dynstat_vvel_sd              =   2.1413374201017E-04
(PID.TID 0000.0001) %MON dynstat_vvel_del2            =   4.6588188384564E-07
(PID.TID 0000.0001) %MON dynstat_wvel_max             =   3.5309128051204E-04
(PID.TID 0000.0001) %MON dynstat_wvel_min             =  -3.6674741962285E-04
(PID.TID 0000.0001) %MON dynstat_wvel_mean            =   6.6480963375239E-09
(PID.TID 0000.0001) %MON dynstat_wvel_sd              =   1.7024607531024E-05
(PID.TID 0000.0001) %MON dynstat_wvel_del2            =   6.8781790933991E-08
(PID.TID 0000.0001) %MON dynstat_theta_max            =   1.2000000000000E+00
(PID.TID 0000.0001) %MON dynstat_theta_min            =  -1.0000000000000E+00
(PID.TID 0000.0001) %MON dynstat_theta_mean           =   5.6893477790799E-01
(PID.TID 0000.0001) %MON dynstat_theta_sd             =   8.6849387463688E-01
(PID.TID 0000.0001) %MON dynstat_theta_del2           =   1.4450730440304E-06
(PID.TID 0000.0001) %MON dynstat_salt_max             =   3.4700000000000E+01
(PID.TID 0000.0001) %MON dynstat_salt_min             =   3.4000000000000E+01
(PID.TID 0000.0001) %MON dynstat_salt_mean            =   3.4499188075848E+01
(PID.TID 0000.0001) %MON dynstat_salt_sd              =   2.7633306724707E-01
(PID.TID 0000.0001) %MON dynstat_salt_del2            =   5.5827966482934E-07
(PID.TID 0000.0001) %MON advcfl_uvel_max              =   9.7807866676654E-04
(PID.TID 0000.0001) %MON advcfl_vvel_max              =   8.0253022582104E-04
(PID.TID 0000.0001) %MON advcfl_wvel_max              =   1.8337370981143E-03
(PID.TID 0000.0001) %MON advcfl_W_hf_max              =   1.8337370981143E-03
(PID.TID 0000.0001) %MON pe_b_mean                    =  -8.3014788339607E-01
(PID.TID 0000.0001) %MON ke_max                       =   2.8107812876625E-05
(PID.TID 0000.0001) %MON ke_mean                      =   6.8385755735972E-08
(PID.TID 0000.0001) %MON ke_vol                       =   4.2725018114604E+12
(PID.TID 0000.0001) // =======================================================
(PID.TID 0000.0001) // End MONITOR dynamic field statistics
(PID.TID 0000.0001) // =======================================================
(PID.TID 0000.0001) // =======================================================
(PID.TID 0000.0001) // Begin OBCS MONITOR field statistics
(PID.TID 0000.0001) // =======================================================
(PID.TID 0000.0001) %MON obc_N_vVel_max               =   1.4739511325966E-05
(PID.TID 0000.0001) %MON obc_N_vVel_min               =   1.4739511325965E-05
(PID.TID 0000.0001) %MON obc_N_vVel_mean              =   1.4739511325965E-05
(PID.TID 0000.0001) %MON obc_N_vVel_sd                =   1.7090879257890E-12
(PID.TID 0000.0001) %MON obc_N_vVel_Int               =   9.7280774751372E+02
(PID.TID 0000.0001) // =======================================================
(PID.TID 0000.0001) // End OBCS MONITOR field statistics
(PID.TID 0000.0001) // =======================================================
 cg2d: Sum(rhs),rhsMax =   4.50993729377357E+00  2.99910224067337E+02
(PID.TID 0000.0001)      cg2d_init_res =   5.93548073148585E-06
(PID.TID 0000.0001)      cg2d_iters(min,last) =      -1      78
(PID.TID 0000.0001)      cg2d_last_res =   8.48379278997178E-12
(PID.TID 0000.0001) // =======================================================
(PID.TID 0000.0001) // Begin MONITOR dynamic field statistics
(PID.TID 0000.0001) // =======================================================
(PID.TID 0000.0001) %MON time_tsnumber                =                   734
(PID.TID 0000.0001) %MON time_secondsf                =   7.3400000000000E+04
(PID.TID 0000.0001) %MON dynstat_eta_max              =   5.7974880077247E+00
(PID.TID 0000.0001) %MON dynstat_eta_min              =  -1.4193073722373E+01
(PID.TID 0000.0001) %MON dynstat_eta_mean             =  -2.5047709338986E+00
(PID.TID 0000.0001) %MON dynstat_eta_sd               =   4.9501850943441E+00
(PID.TID 0000.0001) %MON dynstat_eta_del2             =   2.0714390313845E-01
(PID.TID 0000.0001) %MON dynstat_uvel_max             =   2.1986957341511E-03
(PID.TID 0000.0001) %MON dynstat_uvel_min             =  -9.8097598338924E-03
(PID.TID 0000.0001) %MON dynstat_uvel_mean            =  -1.1739576231596E-07
(PID.TID 0000.0001) %MON dynstat_uvel_sd              =   3.0488219346175E-04
(PID.TID 0000.0001) %MON dynstat_uvel_del2            =   5.1308608478363E-07
(PID.TID 0000.0001) %MON dynstat_vvel_max             =   8.0484346582979E-03
(PID.TID 0000.0001) %MON dynstat_vvel_min             =  -4.0226812037867E-03
(PID.TID 0000.0001) %MON dynstat_vvel_mean            =   1.4977885753572E-05
(PID.TID 0000.0001) %MON dynstat_vvel_sd              =   2.1446175611007E-04
(PID.TID 0000.0001) %MON dynstat_vvel_del2            =   4.6567911223463E-07
(PID.TID 0000.0001) %MON dynstat_wvel_max             =   3.5428559868662E-04
(PID.TID 0000.0001) %MON dynstat_wvel_min             =  -3.6782265331910E-04
(PID.TID 0000.0001) %MON dynstat_wvel_mean            =   6.6476025092302E-09
(PID.TID 0000.0001) %MON dynstat_wvel_sd              =   1.6769280241464E-05
(PID.TID 0000.0001) %MON dynstat_wvel_del2            =   6.6693219539492E-08
(PID.TID 0000.0001) %MON dynstat_theta_max            =   1.2000000000000E+00
(PID.TID 0000.0001) %MON dynstat_theta_min            =  -1.0000000000000E+00
(PID.TID 0000.0001) %MON dynstat_theta_mean           =   5.6893433946354E-01
(PID.TID 0000.0001) %MON dynstat_theta_sd             =   8.6849363262603E-01
(PID.TID 0000.0001) %MON dynstat_theta_del2           =   1.4477795544846E-06
(PID.TID 0000.0001) %MON dynstat_salt_max             =   3.4700000000000E+01
(PID.TID 0000.0001) %MON dynstat_salt_min             =   3.4000000000000E+01
(PID.TID 0000.0001) %MON dynstat_salt_mean            =   3.4499187900562E+01
(PID.TID 0000.0001) %MON dynstat_salt_sd              =   2.7633297564186E-01
(PID.TID 0000.0001) %MON dynstat_salt_del2            =   5.5935374703576E-07
(PID.TID 0000.0001) %MON advcfl_uvel_max              =   9.8097598338924E-04
(PID.TID 0000.0001) %MON advcfl_vvel_max              =   8.0484346582979E-04
(PID.TID 0000.0001) %MON advcfl_wvel_max              =   1.8391132665955E-03
(PID.TID 0000.0001) %MON advcfl_W_hf_max              =   1.8391132665955E-03
(PID.TID 0000.0001) %MON pe_b_mean                    =  -8.3015144325473E-01
(PID.TID 0000.0001) %MON ke_max                       =   2.8259671672104E-05
(PID.TID 0000.0001) %MON ke_mean                      =   6.8662028548050E-08
(PID.TID 0000.0001) %MON ke_vol                       =   4.2725017360385E+12
(PID.TID 0000.0001) // =======================================================
(PID.TID 0000.0001) // End MONITOR dynamic field statistics
(PID.TID 0000.0001) // =======================================================
(PID.TID 0000.0001) // =======================================================
(PID.TID 0000.0001) // Begin OBCS MONITOR field statistics
(PID.TID 0000.0001) // =======================================================
(PID.TID 0000.0001) %MON obc_N_vVel_max               =   1.4739488104226E-05
(PID.TID 0000.0001) %MON obc_N_vVel_min               =   1.4739488104226E-05
(PID.TID 0000.0001) %MON obc_N_vVel_mean              =   1.4739488104226E-05
(PID.TID 0000.0001) %MON obc_N_vVel_sd                =   3.1505820653708E-12
(PID.TID 0000.0001) %MON obc_N_vVel_Int               =   9.7280621487892E+02
(PID.TID 0000.0001) // =======================================================
(PID.TID 0000.0001) // End OBCS MONITOR field statistics
(PID.TID 0000.0001) // =======================================================
 cg2d: Sum(rhs),rhsMax =   4.50995899426240E+00  2.99910299837405E+02
(PID.TID 0000.0001)      cg2d_init_res =   5.91725075740775E-06
(PID.TID 0000.0001)      cg2d_iters(min,last) =      -1      78
(PID.TID 0000.0001)      cg2d_last_res =   8.49712167983755E-12
(PID.TID 0000.0001) // =======================================================
(PID.TID 0000.0001) // Begin MONITOR dynamic field statistics
(PID.TID 0000.0001) // =======================================================
(PID.TID 0000.0001) %MON time_tsnumber                =                   735
(PID.TID 0000.0001) %MON time_secondsf                =   7.3500000000000E+04
(PID.TID 0000.0001) %MON dynstat_eta_max              =   5.7974779719413E+00
(PID.TID 0000.0001) %MON dynstat_eta_min              =  -1.4193098345795E+01
(PID.TID 0000.0001) %MON dynstat_eta_mean             =  -2.5047836189327E+00
(PID.TID 0000.0001) %MON dynstat_eta_sd               =   4.9501893695473E+00
(PID.TID 0000.0001) %MON dynstat_eta_del2             =   2.0714391726522E-01
(PID.TID 0000.0001) %MON dynstat_uvel_max             =   2.2051521510598E-03
(PID.TID 0000.0001) %MON dynstat_uvel_min             =  -9.8388060753827E-03
(PID.TID 0000.0001) %MON dynstat_uvel_mean            =  -1.1739030636203E-07
(PID.TID 0000.0001) %MON dynstat_uvel_sd              =   3.0557522501081E-04
(PID.TID 0000.0001) %MON dynstat_uvel_del2            =   5.1406007797698E-07
(PID.TID 0000.0001) %MON dynstat_vvel_max             =   8.0716158778480E-03
(PID.TID 0000.0001) %MON dynstat_vvel_min             =  -4.0318336179892E-03
(PID.TID 0000.0001) %MON dynstat_vvel_mean            =   1.4977747989299E-05
(PID.TID 0000.0001) %MON dynstat_vvel_sd              =   2.1479339704548E-04
(PID.TID 0000.0001) %MON dynstat_vvel_del2            =   4.6551037006602E-07
(PID.TID 0000.0001) %MON dynstat_wvel_max             =   3.5548285219385E-04
(PID.TID 0000.0001) %MON dynstat_wvel_min             =  -3.6890076170091E-04
(PID.TID 0000.0001) %MON dynstat_wvel_mean            =   6.6470345246890E-09
(PID.TID 0000.0001) %MON dynstat_wvel_sd              =   1.6517822136544E-05
(PID.TID 0000.0001) %MON dynstat_wvel_del2            =   6.4559196103681E-08
(PID.TID 0000.0001) %MON dynstat_theta_max            =   1.2000000000000E+00
(PID.TID 0000.0001) %MON dynstat_theta_min            =  -1.0000000000000E+00
(PID.TID 0000.0001) %MON dynstat_theta_mean           =   5.6893390044858E-01
(PID.TID 0000.0001) %MON dynstat_theta_sd             =   8.6849339015789E-01
(PID.TID 0000.0001) %MON dynstat_theta_del2           =   1.4504800940885E-06
(PID.TID 0000.0001) %MON dynstat_salt_max             =   3.4700000000000E+01
(PID.TID 0000.0001) %MON dynstat_salt_min             =   3.4000000000000E+01
(PID.TID 0000.0001) %MON dynstat_salt_mean            =   3.4499187725035E+01
(PID.TID 0000.0001) %MON dynstat_salt_sd              =   2.7633288385863E-01
(PID.TID 0000.0001) %MON dynstat_salt_del2            =   5.6042707134317E-07
(PID.TID 0000.0001) %MON advcfl_uvel_max              =   9.8388060753827E-04
(PID.TID 0000.0001) %MON advcfl_vvel_max              =   8.0716158778480E-04
(PID.TID 0000.0001) %MON advcfl_wvel_max              =   1.8445038085046E-03
(PID.TID 0000.0001) %MON advcfl_W_hf_max              =   1.8445038085046E-03
(PID.TID 0000.0001) %MON pe_b_mean                    =  -8.3015500094098E-01
(PID.TID 0000.0001) %MON ke_max                       =   2.8412270556937E-05
(PID.TID 0000.0001) %MON ke_mean                      =   6.8940541855250E-08
(PID.TID 0000.0001) %MON ke_vol                       =   4.2725016606526E+12
(PID.TID 0000.0001) // =======================================================
(PID.TID 0000.0001) // End MONITOR dynamic field statistics
(PID.TID 0000.0001) // =======================================================
(PID.TID 0000.0001) // =======================================================
(PID.TID 0000.0001) // Begin OBCS MONITOR field statistics
(PID.TID 0000.0001) // =======================================================
(PID.TID 0000.0001) %MON obc_N_vVel_max               =   1.4739395589586E-05
(PID.TID 0000.0001) %MON obc_N_vVel_min               =   1.4739395589585E-05
(PID.TID 0000.0001) %MON obc_N_vVel_mean              =   1.4739395589586E-05
(PID.TID 0000.0001) %MON obc_N_vVel_sd                =  -8.0133121841075E-24
(PID.TID 0000.0001) %MON obc_N_vVel_Int               =   9.7280010891266E+02
(PID.TID 0000.0001) // =======================================================
(PID.TID 0000.0001) // End OBCS MONITOR field statistics
(PID.TID 0000.0001) // =======================================================
 cg2d: Sum(rhs),rhsMax =   4.50998068364187E+00  2.99910375592700E+02
(PID.TID 0000.0001)      cg2d_init_res =   5.89995850422792E-06
(PID.TID 0000.0001)      cg2d_iters(min,last) =      -1      78
(PID.TID 0000.0001)      cg2d_last_res =   8.50770990143191E-12
(PID.TID 0000.0001) // =======================================================
(PID.TID 0000.0001) // Begin MONITOR dynamic field statistics
(PID.TID 0000.0001) // =======================================================
(PID.TID 0000.0001) %MON time_tsnumber                =                   736
(PID.TID 0000.0001) %MON time_secondsf                =   7.3600000000000E+04
(PID.TID 0000.0001) %MON dynstat_eta_max              =   5.7974679578317E+00
(PID.TID 0000.0001) %MON dynstat_eta_min              =  -1.4193122968556E+01
(PID.TID 0000.0001) %MON dynstat_eta_mean             =  -2.5047962976794E+00
(PID.TID 0000.0001) %MON dynstat_eta_sd               =   4.9501936430982E+00
(PID.TID 0000.0001) %MON dynstat_eta_del2             =   2.0714393142674E-01
(PID.TID 0000.0001) %MON dynstat_uvel_max             =   2.2116240749810E-03
(PID.TID 0000.0001) %MON dynstat_uvel_min             =  -9.8679254660823E-03
(PID.TID 0000.0001) %MON dynstat_uvel_mean            =  -1.1738521428687E-07
(PID.TID 0000.0001) %MON dynstat_uvel_sd              =   3.0627120140457E-04
(PID.TID 0000.0001) %MON dynstat_uvel_del2            =   5.1503547807652E-07
(PID.TID 0000.0001) %MON dynstat_vvel_max             =   8.0948459814527E-03
(PID.TID 0000.0001) %MON dynstat_vvel_min             =  -4.0409937251553E-03
(PID.TID 0000.0001) %MON dynstat_vvel_mean            =   1.4977538185672E-05
(PID.TID 0000.0001) %MON dynstat_vvel_sd              =   2.1513396081641E-04
(PID.TID 0000.0001) %MON dynstat_vvel_del2            =   4.6544863101209E-07
(PID.TID 0000.0001) %MON dynstat_wvel_max             =   3.5668304830866E-04
(PID.TID 0000.0001) %MON dynstat_wvel_min             =  -3.6998175351069E-04
(PID.TID 0000.0001) %MON dynstat_wvel_mean            =   6.6464221109981E-09
(PID.TID 0000.0001) %MON dynstat_wvel_sd              =   1.6291021347879E-05
(PID.TID 0000.0001) %MON dynstat_wvel_del2            =   6.2557490651990E-08
(PID.TID 0000.0001) %MON dynstat_theta_max            =   1.2000000000000E+00
(PID.TID 0000.0001) %MON dynstat_theta_min            =  -1.0000000000000E+00
(PID.TID 0000.0001) %MON dynstat_theta_mean           =   5.6893346084312E-01
(PID.TID 0000.0001) %MON dynstat_theta_sd             =   8.6849314724090E-01
(PID.TID 0000.0001) %MON dynstat_theta_del2           =   1.4531062962457E-06
(PID.TID 0000.0001) %MON dynstat_salt_max             =   3.4700000000000E+01
(PID.TID 0000.0001) %MON dynstat_salt_min             =   3.4000000000000E+01
(PID.TID 0000.0001) %MON dynstat_salt_mean            =   3.4499187549260E+01
(PID.TID 0000.0001) %MON dynstat_salt_sd              =   2.7633279190012E-01
(PID.TID 0000.0001) %MON dynstat_salt_del2            =   5.6148172571181E-07
(PID.TID 0000.0001) %MON advcfl_uvel_max              =   9.8679254660823E-04
(PID.TID 0000.0001) %MON advcfl_vvel_max              =   8.0948459814527E-04
(PID.TID 0000.0001) %MON advcfl_wvel_max              =   1.8499087675535E-03
(PID.TID 0000.0001) %MON advcfl_W_hf_max              =   1.8499087675535E-03
(PID.TID 0000.0001) %MON pe_b_mean                    =  -8.3015855642733E-01
(PID.TID 0000.0001) %MON ke_max                       =   2.8565612362381E-05
(PID.TID 0000.0001) %MON ke_mean                      =   6.9222438289211E-08
(PID.TID 0000.0001) %MON ke_vol                       =   4.2725015853035E+12
(PID.TID 0000.0001) // =======================================================
(PID.TID 0000.0001) // End MONITOR dynamic field statistics
(PID.TID 0000.0001) // =======================================================
(PID.TID 0000.0001) // =======================================================
(PID.TID 0000.0001) // Begin OBCS MONITOR field statistics
(PID.TID 0000.0001) // =======================================================
(PID.TID 0000.0001) %MON obc_N_vVel_max               =   1.4739239285197E-05
(PID.TID 0000.0001) %MON obc_N_vVel_min               =   1.4739239285196E-05
(PID.TID 0000.0001) %MON obc_N_vVel_mean              =   1.4739239285197E-05
(PID.TID 0000.0001) %MON obc_N_vVel_sd                =  -9.7969203799249E-24
(PID.TID 0000.0001) %MON obc_N_vVel_Int               =   9.7278979282299E+02
(PID.TID 0000.0001) // =======================================================
(PID.TID 0000.0001) // End OBCS MONITOR field statistics
(PID.TID 0000.0001) // =======================================================
 cg2d: Sum(rhs),rhsMax =   4.51000236172522E+00  2.99910451334502E+02
(PID.TID 0000.0001)      cg2d_init_res =   5.88511161350887E-06
(PID.TID 0000.0001)      cg2d_iters(min,last) =      -1      78
(PID.TID 0000.0001)      cg2d_last_res =   8.51569726808472E-12
(PID.TID 0000.0001) // =======================================================
(PID.TID 0000.0001) // Begin MONITOR dynamic field statistics
(PID.TID 0000.0001) // =======================================================
(PID.TID 0000.0001) %MON time_tsnumber                =                   737
(PID.TID 0000.0001) %MON time_secondsf                =   7.3700000000000E+04
(PID.TID 0000.0001) %MON dynstat_eta_max              =   5.7974579655397E+00
(PID.TID 0000.0001) %MON dynstat_eta_min              =  -1.4193147590543E+01
(PID.TID 0000.0001) %MON dynstat_eta_mean             =  -2.5048089700457E+00
(PID.TID 0000.0001) %MON dynstat_eta_sd               =   4.9501979149784E+00
(PID.TID 0000.0001) %MON dynstat_eta_del2             =   2.0714394562328E-01
(PID.TID 0000.0001) %MON dynstat_uvel_max             =   2.2181115381805E-03
(PID.TID 0000.0001) %MON dynstat_uvel_min             =  -9.8971180791168E-03
(PID.TID 0000.0001) %MON dynstat_uvel_mean            =  -1.1738065607139E-07
(PID.TID 0000.0001) %MON dynstat_uvel_sd              =   3.0697010458653E-04
(PID.TID 0000.0001) %MON dynstat_uvel_del2            =   5.1601212165223E-07
(PID.TID 0000.0001) %MON dynstat_vvel_max             =   8.1181250330680E-03
(PID.TID 0000.0001) %MON dynstat_vvel_min             =  -4.0501615516249E-03
(PID.TID 0000.0001) %MON dynstat_vvel_mean            =   1.4977266949614E-05
(PID.TID 0000.0001) %MON dynstat_vvel_sd              =   2.1548804622119E-04
(PID.TID 0000.0001) %MON dynstat_vvel_del2            =   4.6555715293142E-07
(PID.TID 0000.0001) %MON dynstat_wvel_max             =   3.5788619417008E-04
(PID.TID 0000.0001) %MON dynstat_wvel_min             =  -3.7106563749837E-04
(PID.TID 0000.0001) %MON dynstat_wvel_mean            =   6.6457962456079E-09
(PID.TID 0000.0001) %MON dynstat_wvel_sd              =   1.6108035189915E-05
(PID.TID 0000.0001) %MON dynstat_wvel_del2            =   6.0868820847171E-08
(PID.TID 0000.0001) %MON dynstat_theta_max            =   1.2000000000000E+00
(PID.TID 0000.0001) %MON dynstat_theta_min            =  -1.0000000000000E+00
(PID.TID 0000.0001) %MON dynstat_theta_mean           =   5.6893302062468E-01
(PID.TID 0000.0001) %MON dynstat_theta_sd             =   8.6849290388465E-01
(PID.TID 0000.0001) %MON dynstat_theta_del2           =   1.4556007055618E-06
(PID.TID 0000.0001) %MON dynstat_salt_max             =   3.4700000000000E+01
(PID.TID 0000.0001) %MON dynstat_salt_min             =   3.4000000000000E+01
(PID.TID 0000.0001) %MON dynstat_salt_mean            =   3.4499187373229E+01
(PID.TID 0000.0001) %MON dynstat_salt_sd              =   2.7633269976925E-01
(PID.TID 0000.0001) %MON dynstat_salt_del2            =   5.6250248044836E-07
(PID.TID 0000.0001) %MON advcfl_uvel_max              =   9.8971180791168E-04
(PID.TID 0000.0001) %MON advcfl_vvel_max              =   8.1181250330680E-04
(PID.TID 0000.0001) %MON advcfl_wvel_max              =   1.8553281874919E-03
(PID.TID 0000.0001) %MON advcfl_W_hf_max              =   1.8553281874919E-03
(PID.TID 0000.0001) %MON pe_b_mean                    =  -8.3016210968941E-01
(PID.TID 0000.0001) %MON ke_max                       =   2.8719699925848E-05
(PID.TID 0000.0001) %MON ke_mean                      =   6.9508718605838E-08
(PID.TID 0000.0001) %MON ke_vol                       =   4.2725015099918E+12
(PID.TID 0000.0001) // =======================================================
(PID.TID 0000.0001) // End MONITOR dynamic field statistics
(PID.TID 0000.0001) // =======================================================
(PID.TID 0000.0001) // =======================================================
(PID.TID 0000.0001) // Begin OBCS MONITOR field statistics
(PID.TID 0000.0001) // =======================================================
(PID.TID 0000.0001) %MON obc_N_vVel_max               =   1.4739026675127E-05
(PID.TID 0000.0001) %MON obc_N_vVel_min               =   1.4739026675127E-05
(PID.TID 0000.0001) %MON obc_N_vVel_mean              =   1.4739026675127E-05
(PID.TID 0000.0001) %MON obc_N_vVel_sd                =  -1.5018497996666E-23
(PID.TID 0000.0001) %MON obc_N_vVel_Int               =   9.7277576055839E+02
(PID.TID 0000.0001) // =======================================================
(PID.TID 0000.0001) // End OBCS MONITOR field statistics
(PID.TID 0000.0001) // =======================================================
 cg2d: Sum(rhs),rhsMax =   4.51002402834234E+00  2.99910527064203E+02
(PID.TID 0000.0001)      cg2d_init_res =   5.87398802423314E-06
(PID.TID 0000.0001)      cg2d_iters(min,last) =      -1      78
(PID.TID 0000.0001)      cg2d_last_res =   8.52165443495814E-12
(PID.TID 0000.0001) // =======================================================
(PID.TID 0000.0001) // Begin MONITOR dynamic field statistics
(PID.TID 0000.0001) // =======================================================
(PID.TID 0000.0001) %MON time_tsnumber                =                   738
(PID.TID 0000.0001) %MON time_secondsf                =   7.3800000000000E+04
(PID.TID 0000.0001) %MON dynstat_eta_max              =   5.7974479951841E+00
(PID.TID 0000.0001) %MON dynstat_eta_min              =  -1.4193172211650E+01
(PID.TID 0000.0001) %MON dynstat_eta_mean             =  -2.5048216359488E+00
(PID.TID 0000.0001) %MON dynstat_eta_sd               =   4.9502021851723E+00
(PID.TID 0000.0001) %MON dynstat_eta_del2             =   2.0714395985501E-01
(PID.TID 0000.0001) %MON dynstat_uvel_max             =   2.2246145727252E-03
(PID.TID 0000.0001) %MON dynstat_uvel_min             =  -9.9263839866914E-03
(PID.TID 0000.0001) %MON dynstat_uvel_mean            =  -1.1737678741985E-07
(PID.TID 0000.0001) %MON dynstat_uvel_sd              =   3.0767192047043E-04
(PID.TID 0000.0001) %MON dynstat_uvel_del2            =   5.1698988942012E-07
(PID.TID 0000.0001) %MON dynstat_vvel_max             =   8.1414530975246E-03
(PID.TID 0000.0001) %MON dynstat_vvel_min             =  -4.0593371235822E-03
(PID.TID 0000.0001) %MON dynstat_vvel_mean            =   1.4976946744360E-05
(PID.TID 0000.0001) %MON dynstat_vvel_sd              =   2.1585917986344E-04
(PID.TID 0000.0001) %MON dynstat_vvel_del2            =   4.6588406789675E-07
(PID.TID 0000.0001) %MON dynstat_wvel_max             =   3.5909229706239E-04
(PID.TID 0000.0001) %MON dynstat_wvel_min             =  -3.7215242245086E-04
(PID.TID 0000.0001) %MON dynstat_wvel_mean            =   6.6451877406123E-09
(PID.TID 0000.0001) %MON dynstat_wvel_sd              =   1.5984371960705E-05
(PID.TID 0000.0001) %MON dynstat_wvel_del2            =   5.9656243647946E-08
(PID.TID 0000.0001) %MON dynstat_theta_max            =   1.2000000000000E+00
(PID.TID 0000.0001) %MON dynstat_theta_min            =  -1.0000000000000E+00
(PID.TID 0000.0001) %MON dynstat_theta_mean           =   5.6893257976851E-01
(PID.TID 0000.0001) %MON dynstat_theta_sd             =   8.6849266009629E-01
(PID.TID 0000.0001) %MON dynstat_theta_del2           =   1.4579214789426E-06
(PID.TID 0000.0001) %MON dynstat_salt_max             =   3.4700000000000E+01
(PID.TID 0000.0001) %MON dynstat_salt_min             =   3.4000000000000E+01
(PID.TID 0000.0001) %MON dynstat_salt_mean            =   3.4499187196934E+01
(PID.TID 0000.0001) %MON dynstat_salt_sd              =   2.7633260746826E-01
(PID.TID 0000.0001) %MON dynstat_salt_del2            =   5.6347868573712E-07
(PID.TID 0000.0001) %MON advcfl_uvel_max              =   9.9263839866914E-04
(PID.TID 0000.0001) %MON advcfl_vvel_max              =   8.1414530975246E-04
(PID.TID 0000.0001) %MON advcfl_wvel_max              =   1.8607621122543E-03
(PID.TID 0000.0001) %MON advcfl_W_hf_max              =   1.8607621122543E-03
(PID.TID 0000.0001) %MON pe_b_mean                    =  -8.3016566070588E-01
(PID.TID 0000.0001) %MON ke_max                       =   2.8874536089727E-05
(PID.TID 0000.0001) %MON ke_mean                      =   6.9800160296539E-08
(PID.TID 0000.0001) %MON ke_vol                       =   4.2725014347179E+12
(PID.TID 0000.0001) // =======================================================
(PID.TID 0000.0001) // End MONITOR dynamic field statistics
(PID.TID 0000.0001) // =======================================================
(PID.TID 0000.0001) // =======================================================
(PID.TID 0000.0001) // Begin OBCS MONITOR field statistics
(PID.TID 0000.0001) // =======================================================
(PID.TID 0000.0001) %MON obc_N_vVel_max               =   1.4738766996945E-05
(PID.TID 0000.0001) %MON obc_N_vVel_min               =   1.4738766996944E-05
(PID.TID 0000.0001) %MON obc_N_vVel_mean              =   1.4738766996945E-05
(PID.TID 0000.0001) %MON obc_N_vVel_sd                =  -1.9904033489557E-24
(PID.TID 0000.0001) %MON obc_N_vVel_Int               =   9.7275862179834E+02
(PID.TID 0000.0001) // =======================================================
(PID.TID 0000.0001) // End OBCS MONITOR field statistics
(PID.TID 0000.0001) // =======================================================
 cg2d: Sum(rhs),rhsMax =   4.51004568334652E+00  2.99910602783252E+02
(PID.TID 0000.0001)      cg2d_init_res =   5.86758649681762E-06
(PID.TID 0000.0001)      cg2d_iters(min,last) =      -1      78
(PID.TID 0000.0001)      cg2d_last_res =   8.52654432187092E-12
(PID.TID 0000.0001) // =======================================================
(PID.TID 0000.0001) // Begin MONITOR dynamic field statistics
(PID.TID 0000.0001) // =======================================================
(PID.TID 0000.0001) %MON time_tsnumber                =                   739
(PID.TID 0000.0001) %MON time_secondsf                =   7.3900000000000E+04
(PID.TID 0000.0001) %MON dynstat_eta_max              =   5.7974380468460E+00
(PID.TID 0000.0001) %MON dynstat_eta_min              =  -1.4193196831819E+01
(PID.TID 0000.0001) %MON dynstat_eta_mean             =  -2.5048342953194E+00
(PID.TID 0000.0001) %MON dynstat_eta_sd               =   4.9502064536712E+00
(PID.TID 0000.0001) %MON dynstat_eta_del2             =   2.0714397412227E-01
(PID.TID 0000.0001) %MON dynstat_uvel_max             =   2.2311332105254E-03
(PID.TID 0000.0001) %MON dynstat_uvel_min             =  -9.9557232601342E-03
(PID.TID 0000.0001) %MON dynstat_uvel_mean            =  -1.1737372572697E-07
(PID.TID 0000.0001) %MON dynstat_uvel_sd              =   3.0837663950671E-04
(PID.TID 0000.0001) %MON dynstat_uvel_del2            =   5.1796871116011E-07
(PID.TID 0000.0001) %MON dynstat_vvel_max             =   8.1648302394264E-03
(PID.TID 0000.0001) %MON dynstat_vvel_min             =  -4.0685204671123E-03
(PID.TID 0000.0001) %MON dynstat_vvel_mean            =   1.4976591453510E-05
(PID.TID 0000.0001) %MON dynstat_vvel_sd              =   2.1624953863236E-04
(PID.TID 0000.0001) %MON dynstat_vvel_del2            =   4.6645830987049E-07
(PID.TID 0000.0001) %MON dynstat_wvel_max             =   3.6030136422688E-04
(PID.TID 0000.0001) %MON dynstat_wvel_min             =  -3.7324211711732E-04
(PID.TID 0000.0001) %MON dynstat_wvel_mean            =   6.6446262997476E-09
(PID.TID 0000.0001) %MON dynstat_wvel_sd              =   1.5930070230391E-05
(PID.TID 0000.0001) %MON dynstat_wvel_del2            =   5.9040618994571E-08
(PID.TID 0000.0001) %MON dynstat_theta_max            =   1.2000000000000E+00
(PID.TID 0000.0001) %MON dynstat_theta_min            =  -1.0000000000000E+00
(PID.TID 0000.0001) %MON dynstat_theta_mean           =   5.6893213824820E-01
(PID.TID 0000.0001) %MON dynstat_theta_sd             =   8.6849241587908E-01
(PID.TID 0000.0001) %MON dynstat_theta_del2           =   1.4600472039836E-06
(PID.TID 0000.0001) %MON dynstat_salt_max             =   3.4700000000000E+01
(PID.TID 0000.0001) %MON dynstat_salt_min             =   3.4000000000000E+01
(PID.TID 0000.0001) %MON dynstat_salt_mean            =   3.4499187020367E+01
(PID.TID 0000.0001) %MON dynstat_salt_sd              =   2.7633251499780E-01
(PID.TID 0000.0001) %MON dynstat_salt_del2            =   5.6440463660960E-07
(PID.TID 0000.0001) %MON advcfl_uvel_max              =   9.9557232601342E-04
(PID.TID 0000.0001) %MON advcfl_vvel_max              =   8.1648302394264E-04
(PID.TID 0000.0001) %MON advcfl_wvel_max              =   1.8662105855866E-03
(PID.TID 0000.0001) %MON advcfl_W_hf_max              =   1.8662105855866E-03
(PID.TID 0000.0001) %MON pe_b_mean                    =  -8.3016920945933E-01
(PID.TID 0000.0001) %MON ke_max                       =   2.9030123700345E-05
(PID.TID 0000.0001) %MON ke_mean                      =   7.0097256379820E-08
(PID.TID 0000.0001) %MON ke_vol                       =   4.2725013594825E+12
(PID.TID 0000.0001) // =======================================================
(PID.TID 0000.0001) // End MONITOR dynamic field statistics
(PID.TID 0000.0001) // =======================================================
(PID.TID 0000.0001) // =======================================================
(PID.TID 0000.0001) // Begin OBCS MONITOR field statistics
(PID.TID 0000.0001) // =======================================================
(PID.TID 0000.0001) %MON obc_N_vVel_max               =   1.4738470878681E-05
(PID.TID 0000.0001) %MON obc_N_vVel_min               =   1.4738470878680E-05
(PID.TID 0000.0001) %MON obc_N_vVel_mean              =   1.4738470878680E-05
(PID.TID 0000.0001) %MON obc_N_vVel_sd                =   3.7187936035926E-12
(PID.TID 0000.0001) %MON obc_N_vVel_Int               =   9.7273907799291E+02
(PID.TID 0000.0001) // =======================================================
(PID.TID 0000.0001) // End OBCS MONITOR field statistics
(PID.TID 0000.0001) // =======================================================
 cg2d: Sum(rhs),rhsMax =   4.51006732660820E+00  2.99910678493116E+02
(PID.TID 0000.0001)      cg2d_init_res =   5.86645650019513E-06
(PID.TID 0000.0001)      cg2d_iters(min,last) =      -1      78
(PID.TID 0000.0001)      cg2d_last_res =   8.53159110789474E-12
(PID.TID 0000.0001) // =======================================================
(PID.TID 0000.0001) // Begin MONITOR dynamic field statistics
(PID.TID 0000.0001) // =======================================================
(PID.TID 0000.0001) %MON time_tsnumber                =                   740
(PID.TID 0000.0001) %MON time_secondsf                =   7.4000000000000E+04
(PID.TID 0000.0001) %MON dynstat_eta_max              =   5.7974281205874E+00
(PID.TID 0000.0001) %MON dynstat_eta_min              =  -1.4193221451006E+01
(PID.TID 0000.0001) %MON dynstat_eta_mean             =  -2.5048469480976E+00
(PID.TID 0000.0001) %MON dynstat_eta_sd               =   4.9502107204724E+00
(PID.TID 0000.0001) %MON dynstat_eta_del2             =   2.0714398842549E-01
(PID.TID 0000.0001) %MON dynstat_uvel_max             =   2.2376674834739E-03
(PID.TID 0000.0001) %MON dynstat_uvel_min             =  -9.9851359698313E-03
(PID.TID 0000.0001) %MON dynstat_uvel_mean            =  -1.1737156122671E-07
(PID.TID 0000.0001) %MON dynstat_uvel_sd              =   3.0908425704551E-04
(PID.TID 0000.0001) %MON dynstat_uvel_del2            =   5.1894856792387E-07
(PID.TID 0000.0001) %MON dynstat_vvel_max             =   8.1882565231517E-03
(PID.TID 0000.0001) %MON dynstat_vvel_min             =  -4.0777116082253E-03
(PID.TID 0000.0001) %MON dynstat_vvel_mean            =   1.4976215905113E-05
(PID.TID 0000.0001) %MON dynstat_vvel_sd              =   2.1665979192235E-04
(PID.TID 0000.0001) %MON dynstat_vvel_del2            =   4.6728728454913E-07
(PID.TID 0000.0001) %MON dynstat_wvel_max             =   3.6151340289868E-04
(PID.TID 0000.0001) %MON dynstat_wvel_min             =  -3.7433473030279E-04
(PID.TID 0000.0001) %MON dynstat_wvel_mean            =   6.6441398653387E-09
(PID.TID 0000.0001) %MON dynstat_wvel_sd              =   1.5948443610185E-05
(PID.TID 0000.0001) %MON dynstat_wvel_del2            =   5.9078428341549E-08
(PID.TID 0000.0001) %MON dynstat_theta_max            =   1.2000000000000E+00
(PID.TID 0000.0001) %MON dynstat_theta_min            =  -1.0000000000000E+00
(PID.TID 0000.0001) %MON dynstat_theta_mean           =   5.6893169603567E-01
(PID.TID 0000.0001) %MON dynstat_theta_sd             =   8.6849217122519E-01
(PID.TID 0000.0001) %MON dynstat_theta_del2           =   1.4619772041308E-06
(PID.TID 0000.0001) %MON dynstat_salt_max             =   3.4700000000000E+01
(PID.TID 0000.0001) %MON dynstat_salt_min             =   3.4000000000000E+01
(PID.TID 0000.0001) %MON dynstat_salt_mean            =   3.4499186843518E+01
(PID.TID 0000.0001) %MON dynstat_salt_sd              =   2.7633242235564E-01
(PID.TID 0000.0001) %MON dynstat_salt_del2            =   5.6528018750302E-07
(PID.TID 0000.0001) %MON advcfl_uvel_max              =   9.9851359698313E-04
(PID.TID 0000.0001) %MON advcfl_vvel_max              =   8.1882565231517E-04
(PID.TID 0000.0001) %MON advcfl_wvel_max              =   1.8716736515139E-03
(PID.TID 0000.0001) %MON advcfl_W_hf_max              =   1.8716736515139E-03
(PID.TID 0000.0001) %MON pe_b_mean                    =  -8.3017275593540E-01
(PID.TID 0000.0001) %MON ke_max                       =   2.9186465608981E-05
(PID.TID 0000.0001) %MON ke_mean                      =   7.0400179213710E-08
(PID.TID 0000.0001) %MON ke_vol                       =   4.2725012842858E+12
(PID.TID 0000.0001) // =======================================================
(PID.TID 0000.0001) // End MONITOR dynamic field statistics
(PID.TID 0000.0001) // =======================================================
(PID.TID 0000.0001) // =======================================================
(PID.TID 0000.0001) // Begin OBCS MONITOR field statistics
(PID.TID 0000.0001) // =======================================================
(PID.TID 0000.0001) %MON obc_N_vVel_max               =   1.4738149980562E-05
(PID.TID 0000.0001) %MON obc_N_vVel_min               =   1.4738149980562E-05
(PID.TID 0000.0001) %MON obc_N_vVel_mean              =   1.4738149980562E-05
(PID.TID 0000.0001) %MON obc_N_vVel_sd                =   2.3354276190928E-12
(PID.TID 0000.0001) %MON obc_N_vVel_Int               =   9.7271789871708E+02
(PID.TID 0000.0001) // =======================================================
(PID.TID 0000.0001) // End OBCS MONITOR field statistics
(PID.TID 0000.0001) // =======================================================
 cg2d: Sum(rhs),rhsMax =   4.51008895801845E+00  2.99910754195248E+02
(PID.TID 0000.0001)      cg2d_init_res =   5.87065978449459E-06
(PID.TID 0000.0001)      cg2d_iters(min,last) =      -1      78
(PID.TID 0000.0001)      cg2d_last_res =   8.53780560527341E-12
(PID.TID 0000.0001) // =======================================================
(PID.TID 0000.0001) // Begin MONITOR dynamic field statistics
(PID.TID 0000.0001) // =======================================================
(PID.TID 0000.0001) %MON time_tsnumber                =                   741
(PID.TID 0000.0001) %MON time_secondsf                =   7.4100000000000E+04
(PID.TID 0000.0001) %MON dynstat_eta_max              =   5.7974182164309E+00
(PID.TID 0000.0001) %MON dynstat_eta_min              =  -1.4193246069200E+01
(PID.TID 0000.0001) %MON dynstat_eta_mean             =  -2.5048595942351E+00
(PID.TID 0000.0001) %MON dynstat_eta_sd               =   4.9502149855725E+00
(PID.TID 0000.0001) %MON dynstat_eta_del2             =   2.0714400276473E-01
(PID.TID 0000.0001) %MON dynstat_uvel_max             =   2.2442174234030E-03
(PID.TID 0000.0001) %MON dynstat_uvel_min             =  -1.0014622185128E-02
(PID.TID 0000.0001) %MON dynstat_uvel_mean            =  -1.1737034905979E-07
(PID.TID 0000.0001) %MON dynstat_uvel_sd              =   3.0979477346821E-04
(PID.TID 0000.0001) %MON dynstat_uvel_del2            =   5.1992949091614E-07
(PID.TID 0000.0001) %MON dynstat_vvel_max             =   8.2117320128514E-03
(PID.TID 0000.0001) %MON dynstat_vvel_min             =  -4.0869105730188E-03
(PID.TID 0000.0001) %MON dynstat_vvel_mean            =   1.4975835350386E-05
(PID.TID 0000.0001) %MON dynstat_vvel_sd              =   2.1708907537720E-04
(PID.TID 0000.0001) %MON dynstat_vvel_del2            =   4.6835651470563E-07
(PID.TID 0000.0001) %MON dynstat_wvel_max             =   3.6272842032075E-04
(PID.TID 0000.0001) %MON dynstat_wvel_min             =  -3.7543027070216E-04
(PID.TID 0000.0001) %MON dynstat_wvel_mean            =   6.6437533402432E-09
(PID.TID 0000.0001) %MON dynstat_wvel_sd              =   1.6035692448382E-05
(PID.TID 0000.0001) %MON dynstat_wvel_del2            =   5.9750211086490E-08
(PID.TID 0000.0001) %MON dynstat_theta_max            =   1.2000000000000E+00
(PID.TID 0000.0001) %MON dynstat_theta_min            =  -1.0000000000000E+00
(PID.TID 0000.0001) %MON dynstat_theta_mean           =   5.6893125310175E-01
(PID.TID 0000.0001) %MON dynstat_theta_sd             =   8.6849192611658E-01
(PID.TID 0000.0001) %MON dynstat_theta_del2           =   1.4637318098165E-06
(PID.TID 0000.0001) %MON dynstat_salt_max             =   3.4700000000000E+01
(PID.TID 0000.0001) %MON dynstat_salt_min             =   3.4000000000000E+01
(PID.TID 0000.0001) %MON dynstat_salt_mean            =   3.4499186666378E+01
(PID.TID 0000.0001) %MON dynstat_salt_sd              =   2.7633232953558E-01
(PID.TID 0000.0001) %MON dynstat_salt_del2            =   5.6611069737216E-07
(PID.TID 0000.0001) %MON advcfl_uvel_max              =   1.0014622185128E-03
(PID.TID 0000.0001) %MON advcfl_vvel_max              =   8.2117320128514E-04
(PID.TID 0000.0001) %MON advcfl_wvel_max              =   1.8771513535108E-03
(PID.TID 0000.0001) %MON advcfl_W_hf_max              =   1.8771513535108E-03
(PID.TID 0000.0001) %MON pe_b_mean                    =  -8.3017630012253E-01
(PID.TID 0000.0001) %MON ke_max                       =   2.9343564670121E-05
(PID.TID 0000.0001) %MON ke_mean                      =   7.0708772029483E-08
(PID.TID 0000.0001) %MON ke_vol                       =   4.2725012091283E+12
(PID.TID 0000.0001) // =======================================================
(PID.TID 0000.0001) // End MONITOR dynamic field statistics
(PID.TID 0000.0001) // =======================================================
(PID.TID 0000.0001) // =======================================================
(PID.TID 0000.0001) // Begin OBCS MONITOR field statistics
(PID.TID 0000.0001) // =======================================================
(PID.TID 0000.0001) %MON obc_N_vVel_max               =   1.4737816599382E-05
(PID.TID 0000.0001) %MON obc_N_vVel_min               =   1.4737816599381E-05
(PID.TID 0000.0001) %MON obc_N_vVel_mean              =   1.4737816599381E-05
(PID.TID 0000.0001) %MON obc_N_vVel_sd                =   3.5224578334304E-12
(PID.TID 0000.0001) %MON obc_N_vVel_Int               =   9.7269589555918E+02
(PID.TID 0000.0001) // =======================================================
(PID.TID 0000.0001) // End OBCS MONITOR field statistics
(PID.TID 0000.0001) // =======================================================
 cg2d: Sum(rhs),rhsMax =   4.51011057750102E+00  2.99910829891054E+02
(PID.TID 0000.0001)      cg2d_init_res =   5.87984812064316E-06
(PID.TID 0000.0001)      cg2d_iters(min,last) =      -1      78
(PID.TID 0000.0001)      cg2d_last_res =   8.54608656835638E-12
(PID.TID 0000.0001) // =======================================================
(PID.TID 0000.0001) // Begin MONITOR dynamic field statistics
(PID.TID 0000.0001) // =======================================================
(PID.TID 0000.0001) %MON time_tsnumber                =                   742
(PID.TID 0000.0001) %MON time_secondsf                =   7.4200000000000E+04
(PID.TID 0000.0001) %MON dynstat_eta_max              =   5.7974083343705E+00
(PID.TID 0000.0001) %MON dynstat_eta_min              =  -1.4193270686429E+01
(PID.TID 0000.0001) %MON dynstat_eta_mean             =  -2.5048722337014E+00
(PID.TID 0000.0001) %MON dynstat_eta_sd               =   4.9502192489744E+00
(PID.TID 0000.0001) %MON dynstat_eta_del2             =   2.0714401714014E-01
(PID.TID 0000.0001) %MON dynstat_uvel_max             =   2.2507830621201E-03
(PID.TID 0000.0001) %MON dynstat_uvel_min             =  -1.0044181974337E-02
(PID.TID 0000.0001) %MON dynstat_uvel_mean            =  -1.1737009791149E-07
(PID.TID 0000.0001) %MON dynstat_uvel_sd              =   3.1050819409385E-04
(PID.TID 0000.0001) %MON dynstat_uvel_del2            =   5.2091155780111E-07
(PID.TID 0000.0001) %MON dynstat_vvel_max             =   8.2352567724158E-03
(PID.TID 0000.0001) %MON dynstat_vvel_min             =  -4.0961173876122E-03
(PID.TID 0000.0001) %MON dynstat_vvel_mean            =   1.4975464922406E-05
(PID.TID 0000.0001) %MON dynstat_vvel_sd              =   2.1753509601474E-04
(PID.TID 0000.0001) %MON dynstat_vvel_del2            =   4.6963127854570E-07
(PID.TID 0000.0001) %MON dynstat_wvel_max             =   3.6394642371327E-04
(PID.TID 0000.0001) %MON dynstat_wvel_min             =  -3.7652874712821E-04
(PID.TID 0000.0001) %MON dynstat_wvel_mean            =   6.6434880979087E-09
(PID.TID 0000.0001) %MON dynstat_wvel_sd              =   1.6181486132661E-05
(PID.TID 0000.0001) %MON dynstat_wvel_del2            =   6.0964823472866E-08
(PID.TID 0000.0001) %MON dynstat_theta_max            =   1.2000000000000E+00
(PID.TID 0000.0001) %MON dynstat_theta_min            =  -1.0000000000000E+00
(PID.TID 0000.0001) %MON dynstat_theta_mean           =   5.6893080941748E-01
(PID.TID 0000.0001) %MON dynstat_theta_sd             =   8.6849168053497E-01
(PID.TID 0000.0001) %MON dynstat_theta_del2           =   1.4653501412117E-06
(PID.TID 0000.0001) %MON dynstat_salt_max             =   3.4700000000000E+01
(PID.TID 0000.0001) %MON dynstat_salt_min             =   3.4000000000000E+01
(PID.TID 0000.0001) %MON dynstat_salt_mean            =   3.4499186488937E+01
(PID.TID 0000.0001) %MON dynstat_salt_sd              =   2.7633223653181E-01
(PID.TID 0000.0001) %MON dynstat_salt_del2            =   5.6690642407088E-07
(PID.TID 0000.0001) %MON advcfl_uvel_max              =   1.0044181974337E-03
(PID.TID 0000.0001) %MON advcfl_vvel_max              =   8.2352567724158E-04
(PID.TID 0000.0001) %MON advcfl_wvel_max              =   1.8826437356411E-03
(PID.TID 0000.0001) %MON advcfl_W_hf_max              =   1.8826437356411E-03
(PID.TID 0000.0001) %MON pe_b_mean                    =  -8.3017984201402E-01
(PID.TID 0000.0001) %MON ke_max                       =   2.9501423741460E-05
(PID.TID 0000.0001) %MON ke_mean                      =   7.1022568470897E-08
(PID.TID 0000.0001) %MON ke_vol                       =   4.2725011340102E+12
(PID.TID 0000.0001) // =======================================================
(PID.TID 0000.0001) // End MONITOR dynamic field statistics
(PID.TID 0000.0001) // =======================================================
(PID.TID 0000.0001) // =======================================================
(PID.TID 0000.0001) // Begin OBCS MONITOR field statistics
(PID.TID 0000.0001) // =======================================================
(PID.TID 0000.0001) %MON obc_N_vVel_max               =   1.4737483237642E-05
(PID.TID 0000.0001) %MON obc_N_vVel_min               =   1.4737483237642E-05
(PID.TID 0000.0001) %MON obc_N_vVel_mean              =   1.4737483237642E-05
(PID.TID 0000.0001) %MON obc_N_vVel_sd                =   2.8444437710270E-12
(PID.TID 0000.0001) %MON obc_N_vVel_Int               =   9.7267389368434E+02
(PID.TID 0000.0001) // =======================================================
(PID.TID 0000.0001) // End OBCS MONITOR field statistics
(PID.TID 0000.0001) // =======================================================
 cg2d: Sum(rhs),rhsMax =   4.51013218499978E+00  2.99910905581842E+02
(PID.TID 0000.0001)      cg2d_init_res =   5.89323597696932E-06
(PID.TID 0000.0001)      cg2d_iters(min,last) =      -1      78
(PID.TID 0000.0001)      cg2d_last_res =   8.55676358543734E-12
(PID.TID 0000.0001) // =======================================================
(PID.TID 0000.0001) // Begin MONITOR dynamic field statistics
(PID.TID 0000.0001) // =======================================================
(PID.TID 0000.0001) %MON time_tsnumber                =                   743
(PID.TID 0000.0001) %MON time_secondsf                =   7.4300000000000E+04
(PID.TID 0000.0001) %MON dynstat_eta_max              =   5.7973984743712E+00
(PID.TID 0000.0001) %MON dynstat_eta_min              =  -1.4193295302743E+01
(PID.TID 0000.0001) %MON dynstat_eta_mean             =  -2.5048848664761E+00
(PID.TID 0000.0001) %MON dynstat_eta_sd               =   4.9502235106898E+00
(PID.TID 0000.0001) %MON dynstat_eta_del2             =   2.0714403155215E-01
(PID.TID 0000.0001) %MON dynstat_uvel_max             =   2.2573644316104E-03
(PID.TID 0000.0001) %MON dynstat_uvel_min             =  -1.0073815404635E-02
(PID.TID 0000.0001) %MON dynstat_uvel_mean            =  -1.1737075858056E-07
(PID.TID 0000.0001) %MON dynstat_uvel_sd              =   3.1122452886135E-04
(PID.TID 0000.0001) %MON dynstat_uvel_del2            =   5.2189488614257E-07
(PID.TID 0000.0001) %MON dynstat_vvel_max             =   8.2588308652296E-03
(PID.TID 0000.0001) %MON dynstat_vvel_min             =  -4.1053320782680E-03
(PID.TID 0000.0001) %MON dynstat_vvel_mean            =   1.4975119173204E-05
(PID.TID 0000.0001) %MON dynstat_vvel_sd              =   2.1799435709515E-04
(PID.TID 0000.0001) %MON dynstat_vvel_del2            =   4.7106004516640E-07
(PID.TID 0000.0001) %MON dynstat_wvel_max             =   3.6516742032456E-04
(PID.TID 0000.0001) %MON dynstat_wvel_min             =  -3.7763016822028E-04
(PID.TID 0000.0001) %MON dynstat_wvel_mean            =   6.6433612363070E-09
(PID.TID 0000.0001) %MON dynstat_wvel_sd              =   1.6370371077388E-05
(PID.TID 0000.0001) %MON dynstat_wvel_del2            =   6.2577719056216E-08
(PID.TID 0000.0001) %MON dynstat_theta_max            =   1.2000000000000E+00
(PID.TID 0000.0001) %MON dynstat_theta_min            =  -1.0000000000000E+00
(PID.TID 0000.0001) %MON dynstat_theta_mean           =   5.6893036495380E-01
(PID.TID 0000.0001) %MON dynstat_theta_sd             =   8.6849143447487E-01
(PID.TID 0000.0001) %MON dynstat_theta_del2           =   1.4668868771770E-06
(PID.TID 0000.0001) %MON dynstat_salt_max             =   3.4700000000000E+01
(PID.TID 0000.0001) %MON dynstat_salt_min             =   3.4000000000000E+01
(PID.TID 0000.0001) %MON dynstat_salt_mean            =   3.4499186311186E+01
(PID.TID 0000.0001) %MON dynstat_salt_sd              =   2.7633214334251E-01
(PID.TID 0000.0001) %MON dynstat_salt_del2            =   5.6768172707287E-07
(PID.TID 0000.0001) %MON advcfl_uvel_max              =   1.0073815404635E-03
(PID.TID 0000.0001) %MON advcfl_vvel_max              =   8.2588308652296E-04
(PID.TID 0000.0001) %MON advcfl_wvel_max              =   1.8881508411014E-03
(PID.TID 0000.0001) %MON advcfl_W_hf_max              =   1.8881508411014E-03
(PID.TID 0000.0001) %MON pe_b_mean                    =  -8.3018338160615E-01
(PID.TID 0000.0001) %MON ke_max                       =   2.9660045683880E-05
(PID.TID 0000.0001) %MON ke_mean                      =   7.1340838063790E-08
(PID.TID 0000.0001) %MON ke_vol                       =   4.2725010589318E+12
(PID.TID 0000.0001) // =======================================================
(PID.TID 0000.0001) // End MONITOR dynamic field statistics
(PID.TID 0000.0001) // =======================================================
(PID.TID 0000.0001) // =======================================================
(PID.TID 0000.0001) // Begin OBCS MONITOR field statistics
(PID.TID 0000.0001) // =======================================================
(PID.TID 0000.0001) %MON obc_N_vVel_max               =   1.4737162195604E-05
(PID.TID 0000.0001) %MON obc_N_vVel_min               =   1.4737162195604E-05
(PID.TID 0000.0001) %MON obc_N_vVel_mean              =   1.4737162195604E-05
(PID.TID 0000.0001) %MON obc_N_vVel_sd                =  -4.9113848870336E-25
(PID.TID 0000.0001) %MON obc_N_vVel_Int               =   9.7265270490987E+02
(PID.TID 0000.0001) // =======================================================
(PID.TID 0000.0001) // End OBCS MONITOR field statistics
(PID.TID 0000.0001) // =======================================================
 cg2d: Sum(rhs),rhsMax =   4.51015378048444E+00  2.99910981268813E+02
(PID.TID 0000.0001)      cg2d_init_res =   5.90967743637441E-06
(PID.TID 0000.0001)      cg2d_iters(min,last) =      -1      78
(PID.TID 0000.0001)      cg2d_last_res =   8.56980235784671E-12
(PID.TID 0000.0001) // =======================================================
(PID.TID 0000.0001) // Begin MONITOR dynamic field statistics
(PID.TID 0000.0001) // =======================================================
(PID.TID 0000.0001) %MON time_tsnumber                =                   744
(PID.TID 0000.0001) %MON time_secondsf                =   7.4400000000000E+04
(PID.TID 0000.0001) %MON dynstat_eta_max              =   5.7973886363719E+00
(PID.TID 0000.0001) %MON dynstat_eta_min              =  -1.4193319918224E+01
(PID.TID 0000.0001) %MON dynstat_eta_mean             =  -2.5048974925525E+00
(PID.TID 0000.0001) %MON dynstat_eta_sd               =   4.9502277707309E+00
(PID.TID 0000.0001) %MON dynstat_eta_del2             =   2.0714404600107E-01
(PID.TID 0000.0001) %MON dynstat_uvel_max             =   2.2639615638695E-03
(PID.TID 0000.0001) %MON dynstat_uvel_min             =  -1.0103522542138E-02
(PID.TID 0000.0001) %MON dynstat_uvel_mean            =  -1.1737222924305E-07
(PID.TID 0000.0001) %MON dynstat_uvel_sd              =   3.1194379186756E-04
(PID.TID 0000.0001) %MON dynstat_uvel_del2            =   5.2287962582759E-07
(PID.TID 0000.0001) %MON dynstat_vvel_max             =   8.2824543542399E-03
(PID.TID 0000.0001) %MON dynstat_vvel_min             =  -4.1145546715589E-03
(PID.TID 0000.0001) %MON dynstat_vvel_mean            =   1.4974811673525E-05
(PID.TID 0000.0001) %MON dynstat_vvel_sd              =   2.1846248077724E-04
(PID.TID 0000.0001) %MON dynstat_vvel_del2            =   4.7257932799369E-07
(PID.TID 0000.0001) %MON dynstat_wvel_max             =   3.6639141738117E-04
(PID.TID 0000.0001) %MON dynstat_wvel_min             =  -3.7873454271750E-04
(PID.TID 0000.0001) %MON dynstat_wvel_mean            =   6.6433850475020E-09
(PID.TID 0000.0001) %MON dynstat_wvel_sd              =   1.6583676492386E-05
(PID.TID 0000.0001) %MON dynstat_wvel_del2            =   6.4415804331858E-08
(PID.TID 0000.0001) %MON dynstat_theta_max            =   1.2000000000000E+00
(PID.TID 0000.0001) %MON dynstat_theta_min            =  -1.0000000000000E+00
(PID.TID 0000.0001) %MON dynstat_theta_mean           =   5.6892991968252E-01
(PID.TID 0000.0001) %MON dynstat_theta_sd             =   8.6849118794654E-01
(PID.TID 0000.0001) %MON dynstat_theta_del2           =   1.4684072732394E-06
(PID.TID 0000.0001) %MON dynstat_salt_max             =   3.4700000000000E+01
(PID.TID 0000.0001) %MON dynstat_salt_min             =   3.4000000000000E+01
(PID.TID 0000.0001) %MON dynstat_salt_mean            =   3.4499186133115E+01
(PID.TID 0000.0001) %MON dynstat_salt_sd              =   2.7633204997070E-01
(PID.TID 0000.0001) %MON dynstat_salt_del2            =   5.6845369504343E-07
(PID.TID 0000.0001) %MON advcfl_uvel_max              =   1.0103522542138E-03
(PID.TID 0000.0001) %MON advcfl_vvel_max              =   8.2824543542399E-04
(PID.TID 0000.0001) %MON advcfl_wvel_max              =   1.8936727135875E-03
(PID.TID 0000.0001) %MON advcfl_W_hf_max              =   1.8936727135875E-03
(PID.TID 0000.0001) %MON pe_b_mean                    =  -8.3018691889845E-01
(PID.TID 0000.0001) %MON ke_max                       =   2.9819433359967E-05
(PID.TID 0000.0001) %MON ke_mean                      =   7.1662653379973E-08
(PID.TID 0000.0001) %MON ke_vol                       =   4.2725009838931E+12
(PID.TID 0000.0001) // =======================================================
(PID.TID 0000.0001) // End MONITOR dynamic field statistics
(PID.TID 0000.0001) // =======================================================
(PID.TID 0000.0001) // =======================================================
(PID.TID 0000.0001) // Begin OBCS MONITOR field statistics
(PID.TID 0000.0001) // =======================================================
(PID.TID 0000.0001) %MON obc_N_vVel_max               =   1.4736865166588E-05
(PID.TID 0000.0001) %MON obc_N_vVel_min               =   1.4736865166587E-05
(PID.TID 0000.0001) %MON obc_N_vVel_mean              =   1.4736865166588E-05
(PID.TID 0000.0001) %MON obc_N_vVel_sd                =  -1.9800635912988E-23
(PID.TID 0000.0001) %MON obc_N_vVel_Int               =   9.7263310099480E+02
(PID.TID 0000.0001) // =======================================================
(PID.TID 0000.0001) // End OBCS MONITOR field statistics
(PID.TID 0000.0001) // =======================================================
 cg2d: Sum(rhs),rhsMax =   4.51017536395118E+00  2.99911056953013E+02
(PID.TID 0000.0001)      cg2d_init_res =   5.92779214775476E-06
(PID.TID 0000.0001)      cg2d_iters(min,last) =      -1      78
(PID.TID 0000.0001)      cg2d_last_res =   8.58491221176435E-12
(PID.TID 0000.0001) // =======================================================
(PID.TID 0000.0001) // Begin MONITOR dynamic field statistics
(PID.TID 0000.0001) // =======================================================
(PID.TID 0000.0001) %MON time_tsnumber                =                   745
(PID.TID 0000.0001) %MON time_secondsf                =   7.4500000000000E+04
(PID.TID 0000.0001) %MON dynstat_eta_max              =   5.7973788202862E+00
(PID.TID 0000.0001) %MON dynstat_eta_min              =  -1.4193344532975E+01
(PID.TID 0000.0001) %MON dynstat_eta_mean             =  -2.5049101119371E+00
(PID.TID 0000.0001) %MON dynstat_eta_sd               =   4.9502320291094E+00
(PID.TID 0000.0001) %MON dynstat_eta_del2             =   2.0714406048697E-01
(PID.TID 0000.0001) %MON dynstat_uvel_max             =   2.2705744910283E-03
(PID.TID 0000.0001) %MON dynstat_uvel_min             =  -1.0133303451777E-02
(PID.TID 0000.0001) %MON dynstat_uvel_mean            =  -1.1737437725615E-07
(PID.TID 0000.0001) %MON dynstat_uvel_sd              =   3.1266600073941E-04
(PID.TID 0000.0001) %MON dynstat_uvel_del2            =   5.2386594944802E-07
(PID.TID 0000.0001) %MON dynstat_vvel_max             =   8.3061273017351E-03
(PID.TID 0000.0001) %MON dynstat_vvel_min             =  -4.1237851942428E-03
(PID.TID 0000.0001) %MON dynstat_vvel_mean            =   1.4974554602305E-05
(PID.TID 0000.0001) %MON dynstat_vvel_sd              =   2.1893459855603E-04
(PID.TID 0000.0001) %MON dynstat_vvel_del2            =   4.7411944831134E-07
(PID.TID 0000.0001) %MON dynstat_wvel_max             =   3.6761842211502E-04
(PID.TID 0000.0001) %MON dynstat_wvel_min             =  -3.7984187925216E-04
(PID.TID 0000.0001) %MON dynstat_wvel_mean            =   6.6435668863748E-09
(PID.TID 0000.0001) %MON dynstat_wvel_sd              =   1.6801543481631E-05
(PID.TID 0000.0001) %MON dynstat_wvel_del2            =   6.6300956243987E-08
(PID.TID 0000.0001) %MON dynstat_theta_max            =   1.2000000000000E+00
(PID.TID 0000.0001) %MON dynstat_theta_min            =  -1.0000000000000E+00
(PID.TID 0000.0001) %MON dynstat_theta_mean           =   5.6892947357696E-01
(PID.TID 0000.0001) %MON dynstat_theta_sd             =   8.6849094096757E-01
(PID.TID 0000.0001) %MON dynstat_theta_del2           =   1.4699812777929E-06
(PID.TID 0000.0001) %MON dynstat_salt_max             =   3.4700000000000E+01
(PID.TID 0000.0001) %MON dynstat_salt_min             =   3.4000000000000E+01
(PID.TID 0000.0001) %MON dynstat_salt_mean            =   3.4499185954715E+01
(PID.TID 0000.0001) %MON dynstat_salt_sd              =   2.7633195642196E-01
(PID.TID 0000.0001) %MON dynstat_salt_del2            =   5.6924063673411E-07
(PID.TID 0000.0001) %MON advcfl_uvel_max              =   1.0133303451777E-03
(PID.TID 0000.0001) %MON advcfl_vvel_max              =   8.3061273017351E-04
(PID.TID 0000.0001) %MON advcfl_wvel_max              =   1.8992093962608E-03
(PID.TID 0000.0001) %MON advcfl_W_hf_max              =   1.8992093962608E-03
(PID.TID 0000.0001) %MON pe_b_mean                    =  -8.3019045389357E-01
(PID.TID 0000.0001) %MON ke_max                       =   2.9979589634858E-05
(PID.TID 0000.0001) %MON ke_mean                      =   7.1986972839110E-08
(PID.TID 0000.0001) %MON ke_vol                       =   4.2725009088942E+12
(PID.TID 0000.0001) // =======================================================
(PID.TID 0000.0001) // End MONITOR dynamic field statistics
(PID.TID 0000.0001) // =======================================================
(PID.TID 0000.0001) // =======================================================
(PID.TID 0000.0001) // Begin OBCS MONITOR field statistics
(PID.TID 0000.0001) // =======================================================
(PID.TID 0000.0001) %MON obc_N_vVel_max               =   1.4736602839592E-05
(PID.TID 0000.0001) %MON obc_N_vVel_min               =   1.4736602839591E-05
(PID.TID 0000.0001) %MON obc_N_vVel_mean              =   1.4736602839591E-05
(PID.TID 0000.0001) %MON obc_N_vVel_sd                =   4.1210498603486E-12
(PID.TID 0000.0001) %MON obc_N_vVel_Int               =   9.7261578741303E+02
(PID.TID 0000.0001) // =======================================================
(PID.TID 0000.0001) // End OBCS MONITOR field statistics
(PID.TID 0000.0001) // =======================================================
 cg2d: Sum(rhs),rhsMax =   4.51019693542011E+00  2.99911132635337E+02
(PID.TID 0000.0001)      cg2d_init_res =   5.94609120714040E-06
(PID.TID 0000.0001)      cg2d_iters(min,last) =      -1      78
(PID.TID 0000.0001)      cg2d_last_res =   8.60172116582712E-12
(PID.TID 0000.0001) // =======================================================
(PID.TID 0000.0001) // Begin MONITOR dynamic field statistics
(PID.TID 0000.0001) // =======================================================
(PID.TID 0000.0001) %MON time_tsnumber                =                   746
(PID.TID 0000.0001) %MON time_secondsf                =   7.4600000000000E+04
(PID.TID 0000.0001) %MON dynstat_eta_max              =   5.7973690260144E+00
(PID.TID 0000.0001) %MON dynstat_eta_min              =  -1.4193369147124E+01
(PID.TID 0000.0001) %MON dynstat_eta_mean             =  -2.5049227246487E+00
(PID.TID 0000.0001) %MON dynstat_eta_sd               =   4.9502362858417E+00
(PID.TID 0000.0001) %MON dynstat_eta_del2             =   2.0714407501006E-01
(PID.TID 0000.0001) %MON dynstat_uvel_max             =   2.2772032454554E-03
(PID.TID 0000.0001) %MON dynstat_uvel_min             =  -1.0163158197280E-02
(PID.TID 0000.0001) %MON dynstat_uvel_mean            =  -1.1737707217896E-07
(PID.TID 0000.0001) %MON dynstat_uvel_sd              =   3.1339117592240E-04
(PID.TID 0000.0001) %MON dynstat_uvel_del2            =   5.2485404263273E-07
(PID.TID 0000.0001) %MON dynstat_vvel_max             =   8.3298497693973E-03
(PID.TID 0000.0001) %MON dynstat_vvel_min             =  -4.1330236734467E-03
(PID.TID 0000.0001) %MON dynstat_vvel_mean            =   1.4974358330720E-05
(PID.TID 0000.0001) %MON dynstat_vvel_sd              =   2.1940577431622E-04
(PID.TID 0000.0001) %MON dynstat_vvel_del2            =   4.7561064744472E-07
(PID.TID 0000.0001) %MON dynstat_wvel_max             =   3.6884844176238E-04
(PID.TID 0000.0001) %MON dynstat_wvel_min             =  -3.8095218639583E-04
(PID.TID 0000.0001) %MON dynstat_wvel_mean            =   6.6439092265603E-09
(PID.TID 0000.0001) %MON dynstat_wvel_sd              =   1.7004778570223E-05
(PID.TID 0000.0001) %MON dynstat_wvel_del2            =   6.8067734363809E-08
(PID.TID 0000.0001) %MON dynstat_theta_max            =   1.2000000000000E+00
(PID.TID 0000.0001) %MON dynstat_theta_min            =  -1.0000000000000E+00
(PID.TID 0000.0001) %MON dynstat_theta_mean           =   5.6892902661243E-01
(PID.TID 0000.0001) %MON dynstat_theta_sd             =   8.6849069355170E-01
(PID.TID 0000.0001) %MON dynstat_theta_del2           =   1.4716770365291E-06
(PID.TID 0000.0001) %MON dynstat_salt_max             =   3.4700000000000E+01
(PID.TID 0000.0001) %MON dynstat_salt_min             =   3.4000000000000E+01
(PID.TID 0000.0001) %MON dynstat_salt_mean            =   3.4499185775979E+01
(PID.TID 0000.0001) %MON dynstat_salt_sd              =   2.7633186270057E-01
(PID.TID 0000.0001) %MON dynstat_salt_del2            =   5.7006033894203E-07
(PID.TID 0000.0001) %MON advcfl_uvel_max              =   1.0163158197280E-03
(PID.TID 0000.0001) %MON advcfl_vvel_max              =   8.3298497693973E-04
(PID.TID 0000.0001) %MON advcfl_wvel_max              =   1.9047609319791E-03
(PID.TID 0000.0001) %MON advcfl_W_hf_max              =   1.9047609319791E-03
(PID.TID 0000.0001) %MON pe_b_mean                    =  -8.3019398659710E-01
(PID.TID 0000.0001) %MON ke_max                       =   3.0140517374672E-05
(PID.TID 0000.0001) %MON ke_mean                      =   7.2312731859532E-08
(PID.TID 0000.0001) %MON ke_vol                       =   4.2725008339351E+12
(PID.TID 0000.0001) // =======================================================
(PID.TID 0000.0001) // End MONITOR dynamic field statistics
(PID.TID 0000.0001) // =======================================================
(PID.TID 0000.0001) // =======================================================
(PID.TID 0000.0001) // Begin OBCS MONITOR field statistics
(PID.TID 0000.0001) // =======================================================
(PID.TID 0000.0001) %MON obc_N_vVel_max               =   1.4736384592715E-05
(PID.TID 0000.0001) %MON obc_N_vVel_min               =   1.4736384592715E-05
(PID.TID 0000.0001) %MON obc_N_vVel_mean              =   1.4736384592715E-05
(PID.TID 0000.0001) %MON obc_N_vVel_sd                =  -6.2038545941477E-25
(PID.TID 0000.0001) %MON obc_N_vVel_Int               =   9.7260138311916E+02
(PID.TID 0000.0001) // =======================================================
(PID.TID 0000.0001) // End OBCS MONITOR field statistics
(PID.TID 0000.0001) // =======================================================
 cg2d: Sum(rhs),rhsMax =   4.51021849492553E+00  2.99911208316504E+02
(PID.TID 0000.0001)      cg2d_init_res =   5.96309026030005E-06
(PID.TID 0000.0001)      cg2d_iters(min,last) =      -1      78
(PID.TID 0000.0001)      cg2d_last_res =   8.61990253238766E-12
(PID.TID 0000.0001) // =======================================================
(PID.TID 0000.0001) // Begin MONITOR dynamic field statistics
(PID.TID 0000.0001) // =======================================================
(PID.TID 0000.0001) %MON time_tsnumber                =                   747
(PID.TID 0000.0001) %MON time_secondsf                =   7.4700000000000E+04
(PID.TID 0000.0001) %MON dynstat_eta_max              =   5.7973592534355E+00
(PID.TID 0000.0001) %MON dynstat_eta_min              =  -1.4193393760815E+01
(PID.TID 0000.0001) %MON dynstat_eta_mean             =  -2.5049353307122E+00
(PID.TID 0000.0001) %MON dynstat_eta_sd               =   4.9502405409444E+00
(PID.TID 0000.0001) %MON dynstat_eta_del2             =   2.0714408957050E-01
(PID.TID 0000.0001) %MON dynstat_uvel_max             =   2.2838478596476E-03
(PID.TID 0000.0001) %MON dynstat_uvel_min             =  -1.0193086841234E-02
(PID.TID 0000.0001) %MON dynstat_uvel_mean            =  -1.1738018405515E-07
(PID.TID 0000.0001) %MON dynstat_uvel_sd              =   3.1411933991608E-04
(PID.TID 0000.0001) %MON dynstat_uvel_del2            =   5.2584409438862E-07
(PID.TID 0000.0001) %MON dynstat_vvel_max             =   8.3536218182152E-03
(PID.TID 0000.0001) %MON dynstat_vvel_min             =  -4.1422701366054E-03
(PID.TID 0000.0001) %MON dynstat_vvel_mean            =   1.4974231076415E-05
(PID.TID 0000.0001) %MON dynstat_vvel_sd              =   2.1987142321618E-04
(PID.TID 0000.0001) %MON dynstat_vvel_del2            =   4.7698899977112E-07
(PID.TID 0000.0001) %MON dynstat_wvel_max             =   3.7008148354297E-04
(PID.TID 0000.0001) %MON dynstat_wvel_min             =  -3.8206547276773E-04
(PID.TID 0000.0001) %MON dynstat_wvel_mean            =   6.6444090357881E-09
(PID.TID 0000.0001) %MON dynstat_wvel_sd              =   1.7176363632849E-05
(PID.TID 0000.0001) %MON dynstat_wvel_del2            =   6.9574601639476E-08
(PID.TID 0000.0001) %MON dynstat_theta_max            =   1.2000000000000E+00
(PID.TID 0000.0001) %MON dynstat_theta_min            =  -1.0000000000000E+00
(PID.TID 0000.0001) %MON dynstat_theta_mean           =   5.6892857876618E-01
(PID.TID 0000.0001) %MON dynstat_theta_sd             =   8.6849044571544E-01
(PID.TID 0000.0001) %MON dynstat_theta_del2           =   1.4735548202668E-06
(PID.TID 0000.0001) %MON dynstat_salt_max             =   3.4700000000000E+01
(PID.TID 0000.0001) %MON dynstat_salt_min             =   3.4000000000000E+01
(PID.TID 0000.0001) %MON dynstat_salt_mean            =   3.4499185596899E+01
(PID.TID 0000.0001) %MON dynstat_salt_sd              =   2.7633176881150E-01
(PID.TID 0000.0001) %MON dynstat_salt_del2            =   5.7092852926179E-07
(PID.TID 0000.0001) %MON advcfl_uvel_max              =   1.0193086841234E-03
(PID.TID 0000.0001) %MON advcfl_vvel_max              =   8.3536218182152E-04
(PID.TID 0000.0001) %MON advcfl_wvel_max              =   1.9103273638387E-03
(PID.TID 0000.0001) %MON advcfl_W_hf_max              =   1.9103273638387E-03
(PID.TID 0000.0001) %MON pe_b_mean                    =  -8.3019751701579E-01
(PID.TID 0000.0001) %MON ke_max                       =   3.0302219447102E-05
(PID.TID 0000.0001) %MON ke_mean                      =   7.2638934487374E-08
(PID.TID 0000.0001) %MON ke_vol                       =   4.2725007590156E+12
(PID.TID 0000.0001) // =======================================================
(PID.TID 0000.0001) // End MONITOR dynamic field statistics
(PID.TID 0000.0001) // =======================================================
(PID.TID 0000.0001) // =======================================================
(PID.TID 0000.0001) // Begin OBCS MONITOR field statistics
(PID.TID 0000.0001) // =======================================================
(PID.TID 0000.0001) %MON obc_N_vVel_max               =   1.4736218253469E-05
(PID.TID 0000.0001) %MON obc_N_vVel_min               =   1.4736218253468E-05
(PID.TID 0000.0001) %MON obc_N_vVel_mean              =   1.4736218253469E-05
(PID.TID 0000.0001) %MON obc_N_vVel_sd                =  -6.7466918711356E-24
(PID.TID 0000.0001) %MON obc_N_vVel_Int               =   9.7259040472892E+02
(PID.TID 0000.0001) // =======================================================
(PID.TID 0000.0001) // End OBCS MONITOR field statistics
(PID.TID 0000.0001) // =======================================================
 cg2d: Sum(rhs),rhsMax =   4.51024004251840E+00  2.99911283997047E+02
(PID.TID 0000.0001)      cg2d_init_res =   5.97745451692097E-06
(PID.TID 0000.0001)      cg2d_iters(min,last) =      -1      78
(PID.TID 0000.0001)      cg2d_last_res =   8.63929532165670E-12
(PID.TID 0000.0001) // =======================================================
(PID.TID 0000.0001) // Begin MONITOR dynamic field statistics
(PID.TID 0000.0001) // =======================================================
(PID.TID 0000.0001) %MON time_tsnumber                =                   748
(PID.TID 0000.0001) %MON time_secondsf                =   7.4800000000000E+04
(PID.TID 0000.0001) %MON dynstat_eta_max              =   5.7973495024252E+00
(PID.TID 0000.0001) %MON dynstat_eta_min              =  -1.4193418374201E+01
(PID.TID 0000.0001) %MON dynstat_eta_mean             =  -2.5049479301604E+00
(PID.TID 0000.0001) %MON dynstat_eta_sd               =   4.9502447944375E+00
(PID.TID 0000.0001) %MON dynstat_eta_del2             =   2.0714410416856E-01
(PID.TID 0000.0001) %MON dynstat_uvel_max             =   2.2905083663893E-03
(PID.TID 0000.0001) %MON dynstat_uvel_min             =  -1.0223089444903E-02
(PID.TID 0000.0001) %MON dynstat_uvel_mean            =  -1.1738357698573E-07
(PID.TID 0000.0001) %MON dynstat_uvel_sd              =   3.1485051652802E-04
(PID.TID 0000.0001) %MON dynstat_uvel_del2            =   5.2683628859513E-07
(PID.TID 0000.0001) %MON dynstat_vvel_max             =   8.3774435083721E-03
(PID.TID 0000.0001) %MON dynstat_vvel_min             =  -4.1515246116521E-03
(PID.TID 0000.0001) %MON dynstat_vvel_mean            =   1.4974178653243E-05
(PID.TID 0000.0001) %MON dynstat_vvel_sd              =   2.2032769093705E-04
(PID.TID 0000.0001) %MON dynstat_vvel_del2            =   4.7820164073634E-07
(PID.TID 0000.0001) %MON dynstat_wvel_max             =   3.7131755469520E-04
(PID.TID 0000.0001) %MON dynstat_wvel_min             =  -3.8318174683480E-04
(PID.TID 0000.0001) %MON dynstat_wvel_mean            =   6.6450580603593E-09
(PID.TID 0000.0001) %MON dynstat_wvel_sd              =   1.7302571982475E-05
(PID.TID 0000.0001) %MON dynstat_wvel_del2            =   7.0710034344918E-08
(PID.TID 0000.0001) %MON dynstat_theta_max            =   1.2000000000000E+00
(PID.TID 0000.0001) %MON dynstat_theta_min            =  -1.0000000000000E+00
(PID.TID 0000.0001) %MON dynstat_theta_mean           =   5.6892813001821E-01
(PID.TID 0000.0001) %MON dynstat_theta_sd             =   8.6849019747460E-01
(PID.TID 0000.0001) %MON dynstat_theta_del2           =   1.4756617032403E-06
(PID.TID 0000.0001) %MON dynstat_salt_max             =   3.4700000000000E+01
(PID.TID 0000.0001) %MON dynstat_salt_min             =   3.4000000000000E+01
(PID.TID 0000.0001) %MON dynstat_salt_mean            =   3.4499185417468E+01
(PID.TID 0000.0001) %MON dynstat_salt_sd              =   2.7633167475970E-01
(PID.TID 0000.0001) %MON dynstat_salt_del2            =   5.7185747527833E-07
(PID.TID 0000.0001) %MON advcfl_uvel_max              =   1.0223089444903E-03
(PID.TID 0000.0001) %MON advcfl_vvel_max              =   8.3774435083721E-04
(PID.TID 0000.0001) %MON advcfl_wvel_max              =   1.9159087341740E-03
(PID.TID 0000.0001) %MON advcfl_W_hf_max              =   1.9159087341740E-03
(PID.TID 0000.0001) %MON pe_b_mean                    =  -8.3020104515817E-01
(PID.TID 0000.0001) %MON ke_max                       =   3.0464698720651E-05
(PID.TID 0000.0001) %MON ke_mean                      =   7.2964737689906E-08
(PID.TID 0000.0001) %MON ke_vol                       =   4.2725006841356E+12
(PID.TID 0000.0001) // =======================================================
(PID.TID 0000.0001) // End MONITOR dynamic field statistics
(PID.TID 0000.0001) // =======================================================
(PID.TID 0000.0001) // =======================================================
(PID.TID 0000.0001) // Begin OBCS MONITOR field statistics
(PID.TID 0000.0001) // =======================================================
(PID.TID 0000.0001) %MON obc_N_vVel_max               =   1.4736109845757E-05
(PID.TID 0000.0001) %MON obc_N_vVel_min               =   1.4736109845757E-05
(PID.TID 0000.0001) %MON obc_N_vVel_mean              =   1.4736109845757E-05
(PID.TID 0000.0001) %MON obc_N_vVel_sd                =   3.6022764829238E-12
(PID.TID 0000.0001) %MON obc_N_vVel_Int               =   9.7258324981997E+02
(PID.TID 0000.0001) // =======================================================
(PID.TID 0000.0001) // End OBCS MONITOR field statistics
(PID.TID 0000.0001) // =======================================================
 cg2d: Sum(rhs),rhsMax =   4.51026157826513E+00  2.99911359677320E+02
(PID.TID 0000.0001)      cg2d_init_res =   5.98809784678716E-06
(PID.TID 0000.0001)      cg2d_iters(min,last) =      -1      78
(PID.TID 0000.0001)      cg2d_last_res =   8.65988179508854E-12
(PID.TID 0000.0001) // =======================================================
(PID.TID 0000.0001) // Begin MONITOR dynamic field statistics
(PID.TID 0000.0001) // =======================================================
(PID.TID 0000.0001) %MON time_tsnumber                =                   749
(PID.TID 0000.0001) %MON time_secondsf                =   7.4900000000000E+04
(PID.TID 0000.0001) %MON dynstat_eta_max              =   5.7973397728501E+00
(PID.TID 0000.0001) %MON dynstat_eta_min              =  -1.4193442987444E+01
(PID.TID 0000.0001) %MON dynstat_eta_mean             =  -2.5049605230331E+00
(PID.TID 0000.0001) %MON dynstat_eta_sd               =   4.9502490463400E+00
(PID.TID 0000.0001) %MON dynstat_eta_del2             =   2.0714411880448E-01
(PID.TID 0000.0001) %MON dynstat_uvel_max             =   2.2971847987030E-03
(PID.TID 0000.0001) %MON dynstat_uvel_min             =  -1.0253166068434E-02
(PID.TID 0000.0001) %MON dynstat_uvel_mean            =  -1.1738712513157E-07
(PID.TID 0000.0001) %MON dynstat_uvel_sd              =   3.1558473016819E-04
(PID.TID 0000.0001) %MON dynstat_uvel_del2            =   5.2783079697349E-07
(PID.TID 0000.0001) %MON dynstat_vvel_max             =   8.4013148993134E-03
(PID.TID 0000.0001) %MON dynstat_vvel_min             =  -4.1607871268328E-03
(PID.TID 0000.0001) %MON dynstat_vvel_mean            =   1.4974204319051E-05
(PID.TID 0000.0001) %MON dynstat_vvel_sd              =   2.2077176225998E-04
(PID.TID 0000.0001) %MON dynstat_vvel_del2            =   4.7921092001993E-07
(PID.TID 0000.0001) %MON dynstat_wvel_max             =   3.7255666243590E-04
(PID.TID 0000.0001) %MON dynstat_wvel_min             =  -3.8430101706188E-04
(PID.TID 0000.0001) %MON dynstat_wvel_mean            =   6.6458431463397E-09
(PID.TID 0000.0001) %MON dynstat_wvel_sd              =   1.7373715098509E-05
(PID.TID 0000.0001) %MON dynstat_wvel_del2            =   7.1395341364004E-08
(PID.TID 0000.0001) %MON dynstat_theta_max            =   1.2000000000000E+00
(PID.TID 0000.0001) %MON dynstat_theta_min            =  -1.0000000000000E+00
(PID.TID 0000.0001) %MON dynstat_theta_mean           =   5.6892768035176E-01
(PID.TID 0000.0001) %MON dynstat_theta_sd             =   8.6848994884399E-01
(PID.TID 0000.0001) %MON dynstat_theta_del2           =   1.4780272774372E-06
(PID.TID 0000.0001) %MON dynstat_salt_max             =   3.4700000000000E+01
(PID.TID 0000.0001) %MON dynstat_salt_min             =   3.4000000000000E+01
(PID.TID 0000.0001) %MON dynstat_salt_mean            =   3.4499185237680E+01
(PID.TID 0000.0001) %MON dynstat_salt_sd              =   2.7633158054987E-01
(PID.TID 0000.0001) %MON dynstat_salt_del2            =   5.7285487672386E-07
(PID.TID 0000.0001) %MON advcfl_uvel_max              =   1.0253166068434E-03
(PID.TID 0000.0001) %MON advcfl_vvel_max              =   8.4013148993134E-04
(PID.TID 0000.0001) %MON advcfl_wvel_max              =   1.9215050853094E-03
(PID.TID 0000.0001) %MON advcfl_W_hf_max              =   1.9215050853094E-03
(PID.TID 0000.0001) %MON pe_b_mean                    =  -8.3020457103401E-01
(PID.TID 0000.0001) %MON ke_max                       =   3.0627958064570E-05
(PID.TID 0000.0001) %MON ke_mean                      =   7.3289521233370E-08
(PID.TID 0000.0001) %MON ke_vol                       =   4.2725006092948E+12
(PID.TID 0000.0001) // =======================================================
(PID.TID 0000.0001) // End MONITOR dynamic field statistics
(PID.TID 0000.0001) // =======================================================
(PID.TID 0000.0001) // =======================================================
(PID.TID 0000.0001) // Begin OBCS MONITOR field statistics
(PID.TID 0000.0001) // =======================================================
(PID.TID 0000.0001) %MON obc_N_vVel_max               =   1.4736063404865E-05
(PID.TID 0000.0001) %MON obc_N_vVel_min               =   1.4736063404864E-05
(PID.TID 0000.0001) %MON obc_N_vVel_mean              =   1.4736063404865E-05
(PID.TID 0000.0001) %MON obc_N_vVel_sd                =  -2.4453526858599E-23
(PID.TID 0000.0001) %MON obc_N_vVel_Int               =   9.7258018472106E+02
(PID.TID 0000.0001) // =======================================================
(PID.TID 0000.0001) // End OBCS MONITOR field statistics
(PID.TID 0000.0001) // =======================================================
 cg2d: Sum(rhs),rhsMax =   4.51028310223431E+00  2.99911435357483E+02
(PID.TID 0000.0001)      cg2d_init_res =   5.99426106050195E-06
(PID.TID 0000.0001)      cg2d_iters(min,last) =      -1      78
(PID.TID 0000.0001)      cg2d_last_res =   8.68155358284099E-12
(PID.TID 0000.0001) // =======================================================
(PID.TID 0000.0001) // Begin MONITOR dynamic field statistics
(PID.TID 0000.0001) // =======================================================
(PID.TID 0000.0001) %MON time_tsnumber                =                   750
(PID.TID 0000.0001) %MON time_secondsf                =   7.5000000000000E+04
(PID.TID 0000.0001) %MON dynstat_eta_max              =   5.7973300645791E+00
(PID.TID 0000.0001) %MON dynstat_eta_min              =  -1.4193467600702E+01
(PID.TID 0000.0001) %MON dynstat_eta_mean             =  -2.5049731093698E+00
(PID.TID 0000.0001) %MON dynstat_eta_sd               =   4.9502532966713E+00
(PID.TID 0000.0001) %MON dynstat_eta_del2             =   2.0714413347860E-01
(PID.TID 0000.0001) %MON dynstat_uvel_max             =   2.3038771897212E-03
(PID.TID 0000.0001) %MON dynstat_uvel_min             =  -1.0283316770611E-02
(PID.TID 0000.0001) %MON dynstat_uvel_mean            =  -1.1739071194039E-07
(PID.TID 0000.0001) %MON dynstat_uvel_sd              =   3.1632200522708E-04
(PID.TID 0000.0001) %MON dynstat_uvel_del2            =   5.2882777397352E-07
(PID.TID 0000.0001) %MON dynstat_vvel_max             =   8.4252360496726E-03
(PID.TID 0000.0001) %MON dynstat_vvel_min             =  -4.1700577109243E-03
(PID.TID 0000.0001) %MON dynstat_vvel_mean            =   1.4974308700388E-05
(PID.TID 0000.0001) %MON dynstat_vvel_sd              =   2.2120207463198E-04
(PID.TID 0000.0001) %MON dynstat_vvel_del2            =   4.7999719965526E-07
(PID.TID 0000.0001) %MON dynstat_wvel_max             =   3.7379881398563E-04
(PID.TID 0000.0001) %MON dynstat_wvel_min             =  -3.8542329186797E-04
(PID.TID 0000.0001) %MON dynstat_wvel_mean            =   6.6467467156042E-09
(PID.TID 0000.0001) %MON dynstat_wvel_sd              =   1.7384573663203E-05
(PID.TID 0000.0001) %MON dynstat_wvel_del2            =   7.1585642659712E-08
(PID.TID 0000.0001) %MON dynstat_theta_max            =   1.2000000000000E+00
(PID.TID 0000.0001) %MON dynstat_theta_min            =  -1.0000000000000E+00
(PID.TID 0000.0001) %MON dynstat_theta_mean           =   5.6892722975292E-01
(PID.TID 0000.0001) %MON dynstat_theta_sd             =   8.6848969984422E-01
(PID.TID 0000.0001) %MON dynstat_theta_del2           =   1.4806609268908E-06
(PID.TID 0000.0001) %MON dynstat_salt_max             =   3.4700000000000E+01
(PID.TID 0000.0001) %MON dynstat_salt_min             =   3.4000000000000E+01
(PID.TID 0000.0001) %MON dynstat_salt_mean            =   3.4499185057531E+01
(PID.TID 0000.0001) %MON dynstat_salt_sd              =   2.7633148618837E-01
(PID.TID 0000.0001) %MON dynstat_salt_del2            =   5.7392308208493E-07
(PID.TID 0000.0001) %MON advcfl_uvel_max              =   1.0283316770611E-03
(PID.TID 0000.0001) %MON advcfl_vvel_max              =   8.4252360496726E-04
(PID.TID 0000.0001) %MON advcfl_wvel_max              =   1.9271164593398E-03
(PID.TID 0000.0001) %MON advcfl_W_hf_max              =   1.9271164593398E-03
(PID.TID 0000.0001) %MON pe_b_mean                    =  -8.3020809465250E-01
(PID.TID 0000.0001) %MON ke_max                       =   3.0792000348233E-05
(PID.TID 0000.0001) %MON ke_mean                      =   7.3612937388701E-08
(PID.TID 0000.0001) %MON ke_vol                       =   4.2725005344932E+12
(PID.TID 0000.0001) // =======================================================
(PID.TID 0000.0001) // End MONITOR dynamic field statistics
(PID.TID 0000.0001) // =======================================================
(PID.TID 0000.0001) // =======================================================
(PID.TID 0000.0001) // Begin OBCS MONITOR field statistics
(PID.TID 0000.0001) // =======================================================
(PID.TID 0000.0001) %MON obc_N_vVel_max               =   1.4736080851931E-05
(PID.TID 0000.0001) %MON obc_N_vVel_min               =   1.4736080851930E-05
(PID.TID 0000.0001) %MON obc_N_vVel_mean              =   1.4736080851930E-05
(PID.TID 0000.0001) %MON obc_N_vVel_sd                =   3.8250172659129E-12
(PID.TID 0000.0001) %MON obc_N_vVel_Int               =   9.7258133622739E+02
(PID.TID 0000.0001) // =======================================================
(PID.TID 0000.0001) // End OBCS MONITOR field statistics
(PID.TID 0000.0001) // =======================================================
 cg2d: Sum(rhs),rhsMax =   4.51030461449789E+00  2.99911511037541E+02
(PID.TID 0000.0001)      cg2d_init_res =   5.99557843812932E-06
(PID.TID 0000.0001)      cg2d_iters(min,last) =      -1      78
(PID.TID 0000.0001)      cg2d_last_res =   8.70415767109666E-12
(PID.TID 0000.0001) // =======================================================
(PID.TID 0000.0001) // Begin MONITOR dynamic field statistics
(PID.TID 0000.0001) // =======================================================
(PID.TID 0000.0001) %MON time_tsnumber                =                   751
(PID.TID 0000.0001) %MON time_secondsf                =   7.5100000000000E+04
(PID.TID 0000.0001) %MON dynstat_eta_max              =   5.7973203774946E+00
(PID.TID 0000.0001) %MON dynstat_eta_min              =  -1.4193492214138E+01
(PID.TID 0000.0001) %MON dynstat_eta_mean             =  -2.5049856892105E+00
(PID.TID 0000.0001) %MON dynstat_eta_sd               =   4.9502575454474E+00
(PID.TID 0000.0001) %MON dynstat_eta_del2             =   2.0714414819120E-01
(PID.TID 0000.0001) %MON dynstat_uvel_max             =   2.3105855729106E-03
(PID.TID 0000.0001) %MON dynstat_uvel_min             =  -1.0313541609207E-02
(PID.TID 0000.0001) %MON dynstat_uvel_mean            =  -1.1739422720002E-07
(PID.TID 0000.0001) %MON dynstat_uvel_sd              =   3.1706236554820E-04
(PID.TID 0000.0001) %MON dynstat_uvel_del2            =   5.2982735359387E-07
(PID.TID 0000.0001) %MON dynstat_vvel_max             =   8.4492070172826E-03
(PID.TID 0000.0001) %MON dynstat_vvel_min             =  -4.1793363929754E-03
(PID.TID 0000.0001) %MON dynstat_vvel_mean            =   1.4974489809050E-05
(PID.TID 0000.0001) %MON dynstat_vvel_sd              =   2.2161842111354E-04
(PID.TID 0000.0001) %MON dynstat_vvel_del2            =   4.8056013243107E-07
(PID.TID 0000.0001) %MON dynstat_wvel_max             =   3.7504401657531E-04
(PID.TID 0000.0001) %MON dynstat_wvel_min             =  -3.8654857958534E-04
(PID.TID 0000.0001) %MON dynstat_wvel_mean            =   6.6477474929546E-09
(PID.TID 0000.0001) %MON dynstat_wvel_sd              =   1.7334565417318E-05
(PID.TID 0000.0001) %MON dynstat_wvel_del2            =   7.1269918673289E-08
(PID.TID 0000.0001) %MON dynstat_theta_max            =   1.2000000000000E+00
(PID.TID 0000.0001) %MON dynstat_theta_min            =  -1.0000000000000E+00
(PID.TID 0000.0001) %MON dynstat_theta_mean           =   5.6892677821123E-01
(PID.TID 0000.0001) %MON dynstat_theta_sd             =   8.6848945049275E-01
(PID.TID 0000.0001) %MON dynstat_theta_del2           =   1.4835508816237E-06
(PID.TID 0000.0001) %MON dynstat_salt_max             =   3.4700000000000E+01
(PID.TID 0000.0001) %MON dynstat_salt_min             =   3.4000000000000E+01
(PID.TID 0000.0001) %MON dynstat_salt_mean            =   3.4499184877017E+01
(PID.TID 0000.0001) %MON dynstat_salt_sd              =   2.7633139168061E-01
(PID.TID 0000.0001) %MON dynstat_salt_del2            =   5.7505908741003E-07
(PID.TID 0000.0001) %MON advcfl_uvel_max              =   1.0313541609207E-03
(PID.TID 0000.0001) %MON advcfl_vvel_max              =   8.4492070172826E-04
(PID.TID 0000.0001) %MON advcfl_wvel_max              =   1.9327428979267E-03
(PID.TID 0000.0001) %MON advcfl_W_hf_max              =   1.9327428979267E-03
(PID.TID 0000.0001) %MON pe_b_mean                    =  -8.3021161602227E-01
(PID.TID 0000.0001) %MON ke_max                       =   3.0956828443009E-05
(PID.TID 0000.0001) %MON ke_mean                      =   7.3934936555320E-08
(PID.TID 0000.0001) %MON ke_vol                       =   4.2725004597303E+12
(PID.TID 0000.0001) // =======================================================
(PID.TID 0000.0001) // End MONITOR dynamic field statistics
(PID.TID 0000.0001) // =======================================================
(PID.TID 0000.0001) // =======================================================
(PID.TID 0000.0001) // Begin OBCS MONITOR field statistics
(PID.TID 0000.0001) // =======================================================
(PID.TID 0000.0001) %MON obc_N_vVel_max               =   1.4736161934425E-05
(PID.TID 0000.0001) %MON obc_N_vVel_min               =   1.4736161934425E-05
(PID.TID 0000.0001) %MON obc_N_vVel_mean              =   1.4736161934425E-05
(PID.TID 0000.0001) %MON obc_N_vVel_sd                =  -1.4010371625117E-23
(PID.TID 0000.0001) %MON obc_N_vVel_Int               =   9.7258668767205E+02
(PID.TID 0000.0001) // =======================================================
(PID.TID 0000.0001) // End OBCS MONITOR field statistics
(PID.TID 0000.0001) // =======================================================
 cg2d: Sum(rhs),rhsMax =   4.51032611512588E+00  2.99911586717335E+02
(PID.TID 0000.0001)      cg2d_init_res =   5.99209780578535E-06
(PID.TID 0000.0001)      cg2d_iters(min,last) =      -1      78
(PID.TID 0000.0001)      cg2d_last_res =   8.72705830259772E-12
(PID.TID 0000.0001) // =======================================================
(PID.TID 0000.0001) // Begin MONITOR dynamic field statistics
(PID.TID 0000.0001) // =======================================================
(PID.TID 0000.0001) %MON time_tsnumber                =                   752
(PID.TID 0000.0001) %MON time_secondsf                =   7.5200000000000E+04
(PID.TID 0000.0001) %MON dynstat_eta_max              =   5.7973107114802E+00
(PID.TID 0000.0001) %MON dynstat_eta_min              =  -1.4193516827892E+01
(PID.TID 0000.0001) %MON dynstat_eta_mean             =  -2.5049982625927E+00
(PID.TID 0000.0001) %MON dynstat_eta_sd               =   4.9502617926781E+00
(PID.TID 0000.0001) %MON dynstat_eta_del2             =   2.0714416294246E-01
(PID.TID 0000.0001) %MON dynstat_uvel_max             =   2.3173099818834E-03
(PID.TID 0000.0001) %MON dynstat_uvel_min             =  -1.0343840640733E-02
(PID.TID 0000.0001) %MON dynstat_uvel_mean            =  -1.1739757386941E-07
(PID.TID 0000.0001) %MON dynstat_uvel_sd              =   3.1780583406976E-04
(PID.TID 0000.0001) %MON dynstat_uvel_del2            =   5.3082964895239E-07
(PID.TID 0000.0001) %MON dynstat_vvel_max             =   8.4732278592012E-03
(PID.TID 0000.0001) %MON dynstat_vvel_min             =  -4.1886232025687E-03
(PID.TID 0000.0001) %MON dynstat_vvel_mean            =   1.4974743136561E-05
(PID.TID 0000.0001) %MON dynstat_vvel_sd              =   2.2202193637533E-04
(PID.TID 0000.0001) %MON dynstat_vvel_del2            =   4.8091836061611E-07
(PID.TID 0000.0001) %MON dynstat_wvel_max             =   3.7629227740621E-04
(PID.TID 0000.0001) %MON dynstat_wvel_min             =  -3.8767688853464E-04
(PID.TID 0000.0001) %MON dynstat_wvel_mean            =   6.6488215700695E-09
(PID.TID 0000.0001) %MON dynstat_wvel_sd              =   1.7227683879454E-05
(PID.TID 0000.0001) %MON dynstat_wvel_del2            =   7.0470578561139E-08
(PID.TID 0000.0001) %MON dynstat_theta_max            =   1.2000000000000E+00
(PID.TID 0000.0001) %MON dynstat_theta_min            =  -1.0000000000000E+00
(PID.TID 0000.0001) %MON dynstat_theta_mean           =   5.6892632571951E-01
(PID.TID 0000.0001) %MON dynstat_theta_sd             =   8.6848920080189E-01
(PID.TID 0000.0001) %MON dynstat_theta_del2           =   1.4866650713860E-06
(PID.TID 0000.0001) %MON dynstat_salt_max             =   3.4700000000000E+01
(PID.TID 0000.0001) %MON dynstat_salt_min             =   3.4000000000000E+01
(PID.TID 0000.0001) %MON dynstat_salt_mean            =   3.4499184696135E+01
(PID.TID 0000.0001) %MON dynstat_salt_sd              =   2.7633129703042E-01
(PID.TID 0000.0001) %MON dynstat_salt_del2            =   5.7625441961417E-07
(PID.TID 0000.0001) %MON advcfl_uvel_max              =   1.0343840640733E-03
(PID.TID 0000.0001) %MON advcfl_vvel_max              =   8.4732278592012E-04
(PID.TID 0000.0001) %MON advcfl_wvel_max              =   1.9383844426732E-03
(PID.TID 0000.0001) %MON advcfl_W_hf_max              =   1.9383844426732E-03
(PID.TID 0000.0001) %MON pe_b_mean                    =  -8.3021513515056E-01
(PID.TID 0000.0001) %MON ke_max                       =   3.1122445219484E-05
(PID.TID 0000.0001) %MON ke_mean                      =   7.4255766984732E-08
(PID.TID 0000.0001) %MON ke_vol                       =   4.2725003850061E+12
(PID.TID 0000.0001) // =======================================================
(PID.TID 0000.0001) // End MONITOR dynamic field statistics
(PID.TID 0000.0001) // =======================================================
(PID.TID 0000.0001) // =======================================================
(PID.TID 0000.0001) // Begin OBCS MONITOR field statistics
(PID.TID 0000.0001) // =======================================================
(PID.TID 0000.0001) %MON obc_N_vVel_max               =   1.4736304258339E-05
(PID.TID 0000.0001) %MON obc_N_vVel_min               =   1.4736304258339E-05
(PID.TID 0000.0001) %MON obc_N_vVel_mean              =   1.4736304258339E-05
(PID.TID 0000.0001) %MON obc_N_vVel_sd                =   4.3942573234034E-12
(PID.TID 0000.0001) %MON obc_N_vVel_Int               =   9.7259608105035E+02
(PID.TID 0000.0001) // =======================================================
(PID.TID 0000.0001) // End OBCS MONITOR field statistics
(PID.TID 0000.0001) // =======================================================
 cg2d: Sum(rhs),rhsMax =   4.51034760418224E+00  2.99911662396577E+02
(PID.TID 0000.0001)      cg2d_init_res =   5.98425748573316E-06
(PID.TID 0000.0001)      cg2d_iters(min,last) =      -1      78
(PID.TID 0000.0001)      cg2d_last_res =   8.74954731703797E-12
(PID.TID 0000.0001) // =======================================================
(PID.TID 0000.0001) // Begin MONITOR dynamic field statistics
(PID.TID 0000.0001) // =======================================================
(PID.TID 0000.0001) %MON time_tsnumber                =                   753
(PID.TID 0000.0001) %MON time_secondsf                =   7.5300000000000E+04
(PID.TID 0000.0001) %MON dynstat_eta_max              =   5.7973010664417E+00
(PID.TID 0000.0001) %MON dynstat_eta_min              =  -1.4193541442107E+01
(PID.TID 0000.0001) %MON dynstat_eta_mean             =  -2.5050108295495E+00
(PID.TID 0000.0001) %MON dynstat_eta_sd               =   4.9502660383689E+00
(PID.TID 0000.0001) %MON dynstat_eta_del2             =   2.0714417773244E-01
(PID.TID 0000.0001) %MON dynstat_uvel_max             =   2.3240504503796E-03
(PID.TID 0000.0001) %MON dynstat_uvel_min             =  -1.0374213920507E-02
(PID.TID 0000.0001) %MON dynstat_uvel_mean            =  -1.1740067068451E-07
(PID.TID 0000.0001) %MON dynstat_uvel_sd              =   3.1855243256055E-04
(PID.TID 0000.0001) %MON dynstat_uvel_del2            =   5.3183475050363E-07
(PID.TID 0000.0001) %MON dynstat_vvel_max             =   8.4972986317249E-03
(PID.TID 0000.0001) %MON dynstat_vvel_min             =  -4.1979181695986E-03
(PID.TID 0000.0001) %MON dynstat_vvel_mean            =   1.4975061827772E-05
(PID.TID 0000.0001) %MON dynstat_vvel_sd              =   2.2241496953980E-04
(PID.TID 0000.0001) %MON dynstat_vvel_del2            =   4.8110768530614E-07
(PID.TID 0000.0001) %MON dynstat_wvel_max             =   3.7754360370373E-04
(PID.TID 0000.0001) %MON dynstat_wvel_min             =  -3.8880822691989E-04
(PID.TID 0000.0001) %MON dynstat_wvel_mean            =   6.6499430713621E-09
(PID.TID 0000.0001) %MON dynstat_wvel_sd              =   1.7072219019455E-05
(PID.TID 0000.0001) %MON dynstat_wvel_del2            =   6.9242652245783E-08
(PID.TID 0000.0001) %MON dynstat_theta_max            =   1.2000000000000E+00
(PID.TID 0000.0001) %MON dynstat_theta_min            =  -1.0000000000000E+00
(PID.TID 0000.0001) %MON dynstat_theta_mean           =   5.6892587227439E-01
(PID.TID 0000.0001) %MON dynstat_theta_sd             =   8.6848895077875E-01
(PID.TID 0000.0001) %MON dynstat_theta_del2           =   1.4899534456963E-06
(PID.TID 0000.0001) %MON dynstat_salt_max             =   3.4700000000000E+01
(PID.TID 0000.0001) %MON dynstat_salt_min             =   3.4000000000000E+01
(PID.TID 0000.0001) %MON dynstat_salt_mean            =   3.4499184514885E+01
(PID.TID 0000.0001) %MON dynstat_salt_sd              =   2.7633120223984E-01
(PID.TID 0000.0001) %MON dynstat_salt_del2            =   5.7749622594448E-07
(PID.TID 0000.0001) %MON advcfl_uvel_max              =   1.0374213920507E-03
(PID.TID 0000.0001) %MON advcfl_vvel_max              =   8.4972986317249E-04
(PID.TID 0000.0001) %MON advcfl_wvel_max              =   1.9440411345995E-03
(PID.TID 0000.0001) %MON advcfl_W_hf_max              =   1.9440411345995E-03
(PID.TID 0000.0001) %MON pe_b_mean                    =  -8.3021865204298E-01
(PID.TID 0000.0001) %MON ke_max                       =   3.1288853550345E-05
(PID.TID 0000.0001) %MON ke_mean                      =   7.4575949067229E-08
(PID.TID 0000.0001) %MON ke_vol                       =   4.2725003103202E+12
(PID.TID 0000.0001) // =======================================================
(PID.TID 0000.0001) // End MONITOR dynamic field statistics
(PID.TID 0000.0001) // =======================================================
(PID.TID 0000.0001) // =======================================================
(PID.TID 0000.0001) // Begin OBCS MONITOR field statistics
(PID.TID 0000.0001) // =======================================================
(PID.TID 0000.0001) %MON obc_N_vVel_max               =   1.4736503395750E-05
(PID.TID 0000.0001) %MON obc_N_vVel_min               =   1.4736503395750E-05
(PID.TID 0000.0001) %MON obc_N_vVel_mean              =   1.4736503395750E-05
(PID.TID 0000.0001) %MON obc_N_vVel_sd                =   2.9470996643831E-12
(PID.TID 0000.0001) %MON obc_N_vVel_Int               =   9.7260922411950E+02
(PID.TID 0000.0001) // =======================================================
(PID.TID 0000.0001) // End OBCS MONITOR field statistics
(PID.TID 0000.0001) // =======================================================
 cg2d: Sum(rhs),rhsMax =   4.51036908172146E+00  2.99911738074854E+02
(PID.TID 0000.0001)      cg2d_init_res =   5.97286549205262E-06
(PID.TID 0000.0001)      cg2d_iters(min,last) =      -1      78
(PID.TID 0000.0001)      cg2d_last_res =   8.77083699727223E-12
(PID.TID 0000.0001) // =======================================================
(PID.TID 0000.0001) // Begin MONITOR dynamic field statistics
(PID.TID 0000.0001) // =======================================================
(PID.TID 0000.0001) %MON time_tsnumber                =                   754
(PID.TID 0000.0001) %MON time_secondsf                =   7.5400000000000E+04
(PID.TID 0000.0001) %MON dynstat_eta_max              =   5.7972914423059E+00
(PID.TID 0000.0001) %MON dynstat_eta_min              =  -1.4193566056894E+01
(PID.TID 0000.0001) %MON dynstat_eta_mean             =  -2.5050233901077E+00
(PID.TID 0000.0001) %MON dynstat_eta_sd               =   4.9502702825276E+00
(PID.TID 0000.0001) %MON dynstat_eta_del2             =   2.0714419256154E-01
(PID.TID 0000.0001) %MON dynstat_uvel_max             =   2.3308070123207E-03
(PID.TID 0000.0001) %MON dynstat_uvel_min             =  -1.0404661502793E-02
(PID.TID 0000.0001) %MON dynstat_uvel_mean            =  -1.1740343778176E-07
(PID.TID 0000.0001) %MON dynstat_uvel_sd              =   3.1930218143255E-04
(PID.TID 0000.0001) %MON dynstat_uvel_del2            =   5.3284273517529E-07
(PID.TID 0000.0001) %MON dynstat_vvel_max             =   8.5214193904406E-03
(PID.TID 0000.0001) %MON dynstat_vvel_min             =  -4.2072213242976E-03
(PID.TID 0000.0001) %MON dynstat_vvel_mean            =   1.4975436899438E-05
(PID.TID 0000.0001) %MON dynstat_vvel_sd              =   2.2280085630615E-04
(PID.TID 0000.0001) %MON dynstat_vvel_del2            =   4.8117784760091E-07
(PID.TID 0000.0001) %MON dynstat_wvel_max             =   3.7879800266791E-04
(PID.TID 0000.0001) %MON dynstat_wvel_min             =  -3.8994260298877E-04
(PID.TID 0000.0001) %MON dynstat_wvel_mean            =   6.6510840761246E-09
(PID.TID 0000.0001) %MON dynstat_wvel_sd              =   1.6880248756929E-05
(PID.TID 0000.0001) %MON dynstat_wvel_del2            =   6.7672413669896E-08
(PID.TID 0000.0001) %MON dynstat_theta_max            =   1.2000000000000E+00
(PID.TID 0000.0001) %MON dynstat_theta_min            =  -1.0000000000000E+00
(PID.TID 0000.0001) %MON dynstat_theta_mean           =   5.6892541787623E-01
(PID.TID 0000.0001) %MON dynstat_theta_sd             =   8.6848870042450E-01
(PID.TID 0000.0001) %MON dynstat_theta_del2           =   1.4933533723247E-06
(PID.TID 0000.0001) %MON dynstat_salt_max             =   3.4700000000000E+01
(PID.TID 0000.0001) %MON dynstat_salt_min             =   3.4000000000000E+01
(PID.TID 0000.0001) %MON dynstat_salt_mean            =   3.4499184333266E+01
(PID.TID 0000.0001) %MON dynstat_salt_sd              =   2.7633110730940E-01
(PID.TID 0000.0001) %MON dynstat_salt_del2            =   5.7876808571535E-07
(PID.TID 0000.0001) %MON advcfl_uvel_max              =   1.0404661502793E-03
(PID.TID 0000.0001) %MON advcfl_vvel_max              =   8.5214193904406E-04
(PID.TID 0000.0001) %MON advcfl_wvel_max              =   1.9497130149438E-03
(PID.TID 0000.0001) %MON advcfl_W_hf_max              =   1.9497130149438E-03
(PID.TID 0000.0001) %MON pe_b_mean                    =  -8.3022216670294E-01
(PID.TID 0000.0001) %MON ke_max                       =   3.1456056308658E-05
(PID.TID 0000.0001) %MON ke_mean                      =   7.4896226696339E-08
(PID.TID 0000.0001) %MON ke_vol                       =   4.2725002356725E+12
(PID.TID 0000.0001) // =======================================================
(PID.TID 0000.0001) // End MONITOR dynamic field statistics
(PID.TID 0000.0001) // =======================================================
(PID.TID 0000.0001) // =======================================================
(PID.TID 0000.0001) // Begin OBCS MONITOR field statistics
(PID.TID 0000.0001) // =======================================================
(PID.TID 0000.0001) %MON obc_N_vVel_max               =   1.4736753054805E-05
(PID.TID 0000.0001) %MON obc_N_vVel_min               =   1.4736753054805E-05
(PID.TID 0000.0001) %MON obc_N_vVel_mean              =   1.4736753054805E-05
(PID.TID 0000.0001) %MON obc_N_vVel_sd                =  -1.1916570699592E-23
(PID.TID 0000.0001) %MON obc_N_vVel_Int               =   9.7262570161714E+02
(PID.TID 0000.0001) // =======================================================
(PID.TID 0000.0001) // End OBCS MONITOR field statistics
(PID.TID 0000.0001) // =======================================================
 cg2d: Sum(rhs),rhsMax =   4.51039054777454E+00  2.99911813751670E+02
(PID.TID 0000.0001)      cg2d_init_res =   5.95900880468286E-06
(PID.TID 0000.0001)      cg2d_iters(min,last) =      -1      78
(PID.TID 0000.0001)      cg2d_last_res =   8.78999987289499E-12
(PID.TID 0000.0001) // =======================================================
(PID.TID 0000.0001) // Begin MONITOR dynamic field statistics
(PID.TID 0000.0001) // =======================================================
(PID.TID 0000.0001) %MON time_tsnumber                =                   755
(PID.TID 0000.0001) %MON time_secondsf                =   7.5500000000000E+04
(PID.TID 0000.0001) %MON dynstat_eta_max              =   5.7972818390188E+00
(PID.TID 0000.0001) %MON dynstat_eta_min              =  -1.4193590672351E+01
(PID.TID 0000.0001) %MON dynstat_eta_mean             =  -2.5050359442805E+00
(PID.TID 0000.0001) %MON dynstat_eta_sd               =   4.9502745251521E+00
(PID.TID 0000.0001) %MON dynstat_eta_del2             =   2.0714420742973E-01
(PID.TID 0000.0001) %MON dynstat_uvel_max             =   2.3375797017202E-03
(PID.TID 0000.0001) %MON dynstat_uvel_min             =  -1.0435183440880E-02
(PID.TID 0000.0001) %MON dynstat_uvel_mean            =  -1.1740580526972E-07
(PID.TID 0000.0001) %MON dynstat_uvel_sd              =   3.2005509969408E-04
(PID.TID 0000.0001) %MON dynstat_uvel_del2            =   5.3385366567045E-07
(PID.TID 0000.0001) %MON dynstat_vvel_max             =   8.5455901903009E-03
(PID.TID 0000.0001) %MON dynstat_vvel_min             =  -4.2165326971553E-03
(PID.TID 0000.0001) %MON dynstat_vvel_mean            =   1.4975857553366E-05
(PID.TID 0000.0001) %MON dynstat_vvel_sd              =   2.2318361207295E-04
(PID.TID 0000.0001) %MON dynstat_vvel_del2            =   4.8118817553577E-07
(PID.TID 0000.0001) %MON dynstat_wvel_max             =   3.8005548151025E-04
(PID.TID 0000.0001) %MON dynstat_wvel_min             =  -3.9108002485893E-04
(PID.TID 0000.0001) %MON dynstat_wvel_mean            =   6.6522168286034E-09
(PID.TID 0000.0001) %MON dynstat_wvel_sd              =   1.6666875717670E-05
(PID.TID 0000.0001) %MON dynstat_wvel_del2            =   6.5874931597104E-08
(PID.TID 0000.0001) %MON dynstat_theta_max            =   1.2000000000000E+00
(PID.TID 0000.0001) %MON dynstat_theta_min            =  -1.0000000000000E+00
(PID.TID 0000.0001) %MON dynstat_theta_mean           =   5.6892496252804E-01
(PID.TID 0000.0001) %MON dynstat_theta_sd             =   8.6848844972986E-01
(PID.TID 0000.0001) %MON dynstat_theta_del2           =   1.4967935908220E-06
(PID.TID 0000.0001) %MON dynstat_salt_max             =   3.4700000000000E+01
(PID.TID 0000.0001) %MON dynstat_salt_min             =   3.4000000000000E+01
(PID.TID 0000.0001) %MON dynstat_salt_mean            =   3.4499184151278E+01
(PID.TID 0000.0001) %MON dynstat_salt_sd              =   2.7633101223569E-01
(PID.TID 0000.0001) %MON dynstat_salt_del2            =   5.8005135558198E-07
(PID.TID 0000.0001) %MON advcfl_uvel_max              =   1.0435183440880E-03
(PID.TID 0000.0001) %MON advcfl_vvel_max              =   8.5455901903009E-04
(PID.TID 0000.0001) %MON advcfl_wvel_max              =   1.9554001242946E-03
(PID.TID 0000.0001) %MON advcfl_W_hf_max              =   1.9554001242946E-03
(PID.TID 0000.0001) %MON pe_b_mean                    =  -8.3022567912960E-01
(PID.TID 0000.0001) %MON ke_max                       =   3.1624056368640E-05
(PID.TID 0000.0001) %MON ke_mean                      =   7.5217500432188E-08
(PID.TID 0000.0001) %MON ke_vol                       =   4.2725001610628E+12
(PID.TID 0000.0001) // =======================================================
(PID.TID 0000.0001) // End MONITOR dynamic field statistics
(PID.TID 0000.0001) // =======================================================
(PID.TID 0000.0001) // =======================================================
(PID.TID 0000.0001) // Begin OBCS MONITOR field statistics
(PID.TID 0000.0001) // =======================================================
(PID.TID 0000.0001) %MON obc_N_vVel_max               =   1.4737045287809E-05
(PID.TID 0000.0001) %MON obc_N_vVel_min               =   1.4737045287808E-05
(PID.TID 0000.0001) %MON obc_N_vVel_mean              =   1.4737045287808E-05
(PID.TID 0000.0001) %MON obc_N_vVel_sd                =   2.8262099691929E-12
(PID.TID 0000.0001) %MON obc_N_vVel_Int               =   9.7264498899533E+02
(PID.TID 0000.0001) // =======================================================
(PID.TID 0000.0001) // End OBCS MONITOR field statistics
(PID.TID 0000.0001) // =======================================================
 cg2d: Sum(rhs),rhsMax =   4.51041200234972E+00  2.99911889426462E+02
(PID.TID 0000.0001)      cg2d_init_res =   5.94397538525666E-06
(PID.TID 0000.0001)      cg2d_iters(min,last) =      -1      78
(PID.TID 0000.0001)      cg2d_last_res =   8.80629023636257E-12
(PID.TID 0000.0001) // =======================================================
(PID.TID 0000.0001) // Begin MONITOR dynamic field statistics
(PID.TID 0000.0001) // =======================================================
(PID.TID 0000.0001) %MON time_tsnumber                =                   756
(PID.TID 0000.0001) %MON time_secondsf                =   7.5600000000000E+04
(PID.TID 0000.0001) %MON dynstat_eta_max              =   5.7972722565596E+00
(PID.TID 0000.0001) %MON dynstat_eta_min              =  -1.4193615288538E+01
(PID.TID 0000.0001) %MON dynstat_eta_mean             =  -2.5050484920676E+00
(PID.TID 0000.0001) %MON dynstat_eta_sd               =   4.9502787662343E+00
(PID.TID 0000.0001) %MON dynstat_eta_del2             =   2.0714422233702E-01
(PID.TID 0000.0001) %MON dynstat_uvel_max             =   2.3443685526310E-03
(PID.TID 0000.0001) %MON dynstat_uvel_min             =  -1.0465779786742E-02
(PID.TID 0000.0001) %MON dynstat_uvel_mean            =  -1.1740771674682E-07
(PID.TID 0000.0001) %MON dynstat_uvel_sd              =   3.2081120500952E-04
(PID.TID 0000.0001) %MON dynstat_uvel_del2            =   5.3486759643656E-07
(PID.TID 0000.0001) %MON dynstat_vvel_max             =   8.5698110856658E-03
(PID.TID 0000.0001) %MON dynstat_vvel_min             =  -4.2258523189940E-03
(PID.TID 0000.0001) %MON dynstat_vvel_mean            =   1.4976311537071E-05
(PID.TID 0000.0001) %MON dynstat_vvel_sd              =   2.2356757297820E-04
(PID.TID 0000.0001) %MON dynstat_vvel_del2            =   4.8120242914079E-07
(PID.TID 0000.0001) %MON dynstat_wvel_max             =   3.8131604743831E-04
(PID.TID 0000.0001) %MON dynstat_wvel_min             =  -3.9222050067050E-04
(PID.TID 0000.0001) %MON dynstat_wvel_mean            =   6.6533139384162E-09
(PID.TID 0000.0001) %MON dynstat_wvel_sd              =   1.6449182895597E-05
(PID.TID 0000.0001) %MON dynstat_wvel_del2            =   6.3989674357460E-08
(PID.TID 0000.0001) %MON dynstat_theta_max            =   1.2000000000000E+00
(PID.TID 0000.0001) %MON dynstat_theta_min            =  -1.0000000000000E+00
(PID.TID 0000.0001) %MON dynstat_theta_mean           =   5.6892450623565E-01
(PID.TID 0000.0001) %MON dynstat_theta_sd             =   8.6848819868212E-01
(PID.TID 0000.0001) %MON dynstat_theta_del2           =   1.5002005305155E-06
(PID.TID 0000.0001) %MON dynstat_salt_max             =   3.4700000000000E+01
(PID.TID 0000.0001) %MON dynstat_salt_min             =   3.4000000000000E+01
(PID.TID 0000.0001) %MON dynstat_salt_mean            =   3.4499183968923E+01
(PID.TID 0000.0001) %MON dynstat_salt_sd              =   2.7633091701476E-01
(PID.TID 0000.0001) %MON dynstat_salt_del2            =   5.8132681868453E-07
(PID.TID 0000.0001) %MON advcfl_uvel_max              =   1.0465779786742E-03
(PID.TID 0000.0001) %MON advcfl_vvel_max              =   8.5698110856658E-04
(PID.TID 0000.0001) %MON advcfl_wvel_max              =   1.9611025033525E-03
(PID.TID 0000.0001) %MON advcfl_W_hf_max              =   1.9611025033525E-03
(PID.TID 0000.0001) %MON pe_b_mean                    =  -8.3022918931829E-01
(PID.TID 0000.0001) %MON ke_max                       =   3.1792856606381E-05
(PID.TID 0000.0001) %MON ke_mean                      =   7.5540748394500E-08
(PID.TID 0000.0001) %MON ke_vol                       =   4.2725000864910E+12
(PID.TID 0000.0001) // =======================================================
(PID.TID 0000.0001) // End MONITOR dynamic field statistics
(PID.TID 0000.0001) // =======================================================
(PID.TID 0000.0001) // =======================================================
(PID.TID 0000.0001) // Begin OBCS MONITOR field statistics
(PID.TID 0000.0001) // =======================================================
(PID.TID 0000.0001) %MON obc_N_vVel_max               =   1.4737370749481E-05
(PID.TID 0000.0001) %MON obc_N_vVel_min               =   1.4737370749480E-05
(PID.TID 0000.0001) %MON obc_N_vVel_mean              =   1.4737370749481E-05
(PID.TID 0000.0001) %MON obc_N_vVel_sd                =  -5.5317703464484E-24
(PID.TID 0000.0001) %MON obc_N_vVel_Int               =   9.7266646946572E+02
(PID.TID 0000.0001) // =======================================================
(PID.TID 0000.0001) // End OBCS MONITOR field statistics
(PID.TID 0000.0001) // =======================================================
 cg2d: Sum(rhs),rhsMax =   4.51043344543851E+00  2.99911965098635E+02
(PID.TID 0000.0001)      cg2d_init_res =   5.92916916009985E-06
(PID.TID 0000.0001)      cg2d_iters(min,last) =      -1      78
(PID.TID 0000.0001)      cg2d_last_res =   8.81961057864552E-12
(PID.TID 0000.0001) // =======================================================
(PID.TID 0000.0001) // Begin MONITOR dynamic field statistics
(PID.TID 0000.0001) // =======================================================
(PID.TID 0000.0001) %MON time_tsnumber                =                   757
(PID.TID 0000.0001) %MON time_secondsf                =   7.5700000000000E+04
(PID.TID 0000.0001) %MON dynstat_eta_max              =   5.7972626949324E+00
(PID.TID 0000.0001) %MON dynstat_eta_min              =  -1.4193639905506E+01
(PID.TID 0000.0001) %MON dynstat_eta_mean             =  -2.5050610334594E+00
(PID.TID 0000.0001) %MON dynstat_eta_sd               =   4.9502830057632E+00
(PID.TID 0000.0001) %MON dynstat_eta_del2             =   2.0714423728349E-01
(PID.TID 0000.0001) %MON dynstat_uvel_max             =   2.3511735991910E-03
(PID.TID 0000.0001) %MON dynstat_uvel_min             =  -1.0496450591475E-02
(PID.TID 0000.0001) %MON dynstat_uvel_mean            =  -1.1740912096706E-07
(PID.TID 0000.0001) %MON dynstat_uvel_sd              =   3.2157051374285E-04
(PID.TID 0000.0001) %MON dynstat_uvel_del2            =   5.3588457803639E-07
(PID.TID 0000.0001) %MON dynstat_vvel_max             =   8.5940821303740E-03
(PID.TID 0000.0001) %MON dynstat_vvel_min             =  -4.2351802206655E-03
(PID.TID 0000.0001) %MON dynstat_vvel_mean            =   1.4976785540794E-05
(PID.TID 0000.0001) %MON dynstat_vvel_sd              =   2.2395701658142E-04
(PID.TID 0000.0001) %MON dynstat_vvel_del2            =   4.8128326219207E-07
(PID.TID 0000.0001) %MON dynstat_wvel_max             =   3.8257970764188E-04
(PID.TID 0000.0001) %MON dynstat_wvel_min             =  -3.9336403849169E-04
(PID.TID 0000.0001) %MON dynstat_wvel_mean            =   6.6543493550772E-09
(PID.TID 0000.0001) %MON dynstat_wvel_sd              =   1.6244904478128E-05
(PID.TID 0000.0001) %MON dynstat_wvel_del2            =   6.2172948333114E-08
(PID.TID 0000.0001) %MON dynstat_theta_max            =   1.2000000000000E+00
(PID.TID 0000.0001) %MON dynstat_theta_min            =  -1.0000000000000E+00
(PID.TID 0000.0001) %MON dynstat_theta_mean           =   5.6892404900802E-01
(PID.TID 0000.0001) %MON dynstat_theta_sd             =   8.6848794726661E-01
(PID.TID 0000.0001) %MON dynstat_theta_del2           =   1.5035043366847E-06
(PID.TID 0000.0001) %MON dynstat_salt_max             =   3.4700000000000E+01
(PID.TID 0000.0001) %MON dynstat_salt_min             =   3.4000000000000E+01
(PID.TID 0000.0001) %MON dynstat_salt_mean            =   3.4499183786204E+01
(PID.TID 0000.0001) %MON dynstat_salt_sd              =   2.7633082164167E-01
(PID.TID 0000.0001) %MON dynstat_salt_del2            =   5.8257619973946E-07
(PID.TID 0000.0001) %MON advcfl_uvel_max              =   1.0496450591475E-03
(PID.TID 0000.0001) %MON advcfl_vvel_max              =   8.5940821303740E-04
(PID.TID 0000.0001) %MON advcfl_wvel_max              =   1.9668201924584E-03
(PID.TID 0000.0001) %MON advcfl_W_hf_max              =   1.9668201924584E-03
(PID.TID 0000.0001) %MON pe_b_mean                    =  -8.3023269726148E-01
(PID.TID 0000.0001) %MON ke_max                       =   3.1962459899681E-05
(PID.TID 0000.0001) %MON ke_mean                      =   7.5866941913422E-08
(PID.TID 0000.0001) %MON ke_vol                       =   4.2725000119571E+12
(PID.TID 0000.0001) // =======================================================
(PID.TID 0000.0001) // End MONITOR dynamic field statistics
(PID.TID 0000.0001) // =======================================================
(PID.TID 0000.0001) // =======================================================
(PID.TID 0000.0001) // Begin OBCS MONITOR field statistics
(PID.TID 0000.0001) // =======================================================
(PID.TID 0000.0001) %MON obc_N_vVel_max               =   1.4737719015292E-05
(PID.TID 0000.0001) %MON obc_N_vVel_min               =   1.4737719015292E-05
(PID.TID 0000.0001) %MON obc_N_vVel_mean              =   1.4737719015292E-05
(PID.TID 0000.0001) %MON obc_N_vVel_sd                =  -1.3596781318840E-23
(PID.TID 0000.0001) %MON obc_N_vVel_Int               =   9.7268945500926E+02
(PID.TID 0000.0001) // =======================================================
(PID.TID 0000.0001) // End OBCS MONITOR field statistics
(PID.TID 0000.0001) // =======================================================
 cg2d: Sum(rhs),rhsMax =   4.51045487701206E+00  2.99912040767566E+02
(PID.TID 0000.0001)      cg2d_init_res =   5.91595849288800E-06
(PID.TID 0000.0001)      cg2d_iters(min,last) =      -1      78
(PID.TID 0000.0001)      cg2d_last_res =   8.82989444272407E-12
(PID.TID 0000.0001) // =======================================================
(PID.TID 0000.0001) // Begin MONITOR dynamic field statistics
(PID.TID 0000.0001) // =======================================================
(PID.TID 0000.0001) %MON time_tsnumber                =                   758
(PID.TID 0000.0001) %MON time_secondsf                =   7.5800000000000E+04
(PID.TID 0000.0001) %MON dynstat_eta_max              =   5.7972531541702E+00
(PID.TID 0000.0001) %MON dynstat_eta_min              =  -1.4193664523266E+01
(PID.TID 0000.0001) %MON dynstat_eta_mean             =  -2.5050735684346E+00
(PID.TID 0000.0001) %MON dynstat_eta_sd               =   4.9502872437207E+00
(PID.TID 0000.0001) %MON dynstat_eta_del2             =   2.0714425226924E-01
(PID.TID 0000.0001) %MON dynstat_uvel_max             =   2.3579948755774E-03
(PID.TID 0000.0001) %MON dynstat_uvel_min             =  -1.0527195905063E-02
(PID.TID 0000.0001) %MON dynstat_uvel_mean            =  -1.1740997980752E-07
(PID.TID 0000.0001) %MON dynstat_uvel_sd              =   3.2233304103867E-04
(PID.TID 0000.0001) %MON dynstat_uvel_del2            =   5.3690466142468E-07
(PID.TID 0000.0001) %MON dynstat_vvel_max             =   8.6184033814796E-03
(PID.TID 0000.0001) %MON dynstat_vvel_min             =  -4.2445164332960E-03
(PID.TID 0000.0001) %MON dynstat_vvel_mean            =   1.4977265634774E-05
(PID.TID 0000.0001) %MON dynstat_vvel_sd              =   2.2435579521559E-04
(PID.TID 0000.0001) %MON dynstat_vvel_del2            =   4.8148677604268E-07
(PID.TID 0000.0001) %MON dynstat_wvel_max             =   3.8384646857594E-04
(PID.TID 0000.0001) %MON dynstat_wvel_min             =  -3.9451064638111E-04
(PID.TID 0000.0001) %MON dynstat_wvel_mean            =   6.6552991632843E-09
(PID.TID 0000.0001) %MON dynstat_wvel_sd              =   1.6070861195507E-05
(PID.TID 0000.0001) %MON dynstat_wvel_del2            =   6.0585907665633E-08
(PID.TID 0000.0001) %MON dynstat_theta_max            =   1.2000000000000E+00
(PID.TID 0000.0001) %MON dynstat_theta_min            =  -1.0000000000000E+00
(PID.TID 0000.0001) %MON dynstat_theta_mean           =   5.6892359085673E-01
(PID.TID 0000.0001) %MON dynstat_theta_sd             =   8.6848769546362E-01
(PID.TID 0000.0001) %MON dynstat_theta_del2           =   1.5066442137296E-06
(PID.TID 0000.0001) %MON dynstat_salt_max             =   3.4700000000000E+01
(PID.TID 0000.0001) %MON dynstat_salt_min             =   3.4000000000000E+01
(PID.TID 0000.0001) %MON dynstat_salt_mean            =   3.4499183603124E+01
(PID.TID 0000.0001) %MON dynstat_salt_sd              =   2.7633072611018E-01
(PID.TID 0000.0001) %MON dynstat_salt_del2            =   5.8378362057918E-07
(PID.TID 0000.0001) %MON advcfl_uvel_max              =   1.0527195905063E-03
(PID.TID 0000.0001) %MON advcfl_vvel_max              =   8.6184033814796E-04
(PID.TID 0000.0001) %MON advcfl_wvel_max              =   1.9725532319056E-03
(PID.TID 0000.0001) %MON advcfl_W_hf_max              =   1.9725532319056E-03
(PID.TID 0000.0001) %MON pe_b_mean                    =  -8.3023620294827E-01
(PID.TID 0000.0001) %MON ke_max                       =   3.2132869127519E-05
(PID.TID 0000.0001) %MON ke_mean                      =   7.6196963334031E-08
(PID.TID 0000.0001) %MON ke_vol                       =   4.2724999374613E+12
(PID.TID 0000.0001) // =======================================================
(PID.TID 0000.0001) // End MONITOR dynamic field statistics
(PID.TID 0000.0001) // =======================================================
(PID.TID 0000.0001) // =======================================================
(PID.TID 0000.0001) // Begin OBCS MONITOR field statistics
(PID.TID 0000.0001) // =======================================================
(PID.TID 0000.0001) %MON obc_N_vVel_max               =   1.4738078921018E-05
(PID.TID 0000.0001) %MON obc_N_vVel_min               =   1.4738078921018E-05
(PID.TID 0000.0001) %MON obc_N_vVel_mean              =   1.4738078921018E-05
(PID.TID 0000.0001) %MON obc_N_vVel_sd                =  -1.8637413176585E-23
(PID.TID 0000.0001) %MON obc_N_vVel_Int               =   9.7271320878721E+02
(PID.TID 0000.0001) // =======================================================
(PID.TID 0000.0001) // End OBCS MONITOR field statistics
(PID.TID 0000.0001) // =======================================================
 cg2d: Sum(rhs),rhsMax =   4.51047629701925E+00  2.99912116432664E+02
(PID.TID 0000.0001)      cg2d_init_res =   5.90555109495321E-06
(PID.TID 0000.0001)      cg2d_iters(min,last) =      -1      78
(PID.TID 0000.0001)      cg2d_last_res =   8.83794315604313E-12
(PID.TID 0000.0001) // =======================================================
(PID.TID 0000.0001) // Begin MONITOR dynamic field statistics
(PID.TID 0000.0001) // =======================================================
(PID.TID 0000.0001) %MON time_tsnumber                =                   759
(PID.TID 0000.0001) %MON time_secondsf                =   7.5900000000000E+04
(PID.TID 0000.0001) %MON dynstat_eta_max              =   5.7972436343414E+00
(PID.TID 0000.0001) %MON dynstat_eta_min              =  -1.4193689141807E+01
(PID.TID 0000.0001) %MON dynstat_eta_mean             =  -2.5050860969600E+00
(PID.TID 0000.0001) %MON dynstat_eta_sd               =   4.9502914800876E+00
(PID.TID 0000.0001) %MON dynstat_eta_del2             =   2.0714426729443E-01
(PID.TID 0000.0001) %MON dynstat_uvel_max             =   2.3648324158501E-03
(PID.TID 0000.0001) %MON dynstat_uvel_min             =  -1.0558015776621E-02
(PID.TID 0000.0001) %MON dynstat_uvel_mean            =  -1.1741026107728E-07
(PID.TID 0000.0001) %MON dynstat_uvel_sd              =   3.2309880086603E-04
(PID.TID 0000.0001) %MON dynstat_uvel_del2            =   5.3792790083895E-07
(PID.TID 0000.0001) %MON dynstat_vvel_max             =   8.6427749386297E-03
(PID.TID 0000.0001) %MON dynstat_vvel_min             =  -4.2538609880012E-03
(PID.TID 0000.0001) %MON dynstat_vvel_mean            =   1.4977737709746E-05
(PID.TID 0000.0001) %MON dynstat_vvel_sd              =   2.2476701352596E-04
(PID.TID 0000.0001) %MON dynstat_vvel_del2            =   4.8185765550264E-07
(PID.TID 0000.0001) %MON dynstat_wvel_max             =   3.8511633766875E-04
(PID.TID 0000.0001) %MON dynstat_wvel_min             =  -3.9566033236413E-04
(PID.TID 0000.0001) %MON dynstat_wvel_mean            =   6.6561422858820E-09
(PID.TID 0000.0001) %MON dynstat_wvel_sd              =   1.5941290272341E-05
(PID.TID 0000.0001) %MON dynstat_wvel_del2            =   5.9377629604086E-08
(PID.TID 0000.0001) %MON dynstat_theta_max            =   1.2000000000000E+00
(PID.TID 0000.0001) %MON dynstat_theta_min            =  -1.0000000000000E+00
(PID.TID 0000.0001) %MON dynstat_theta_mean           =   5.6892313179572E-01
(PID.TID 0000.0001) %MON dynstat_theta_sd             =   8.6848744325237E-01
(PID.TID 0000.0001) %MON dynstat_theta_del2           =   1.5095732095602E-06
(PID.TID 0000.0001) %MON dynstat_salt_max             =   3.4700000000000E+01
(PID.TID 0000.0001) %MON dynstat_salt_min             =   3.4000000000000E+01
(PID.TID 0000.0001) %MON dynstat_salt_mean            =   3.4499183419687E+01
(PID.TID 0000.0001) %MON dynstat_salt_sd              =   2.7633063041349E-01
(PID.TID 0000.0001) %MON dynstat_salt_del2            =   5.8493683869601E-07
(PID.TID 0000.0001) %MON advcfl_uvel_max              =   1.0558015776621E-03
(PID.TID 0000.0001) %MON advcfl_vvel_max              =   8.6427749386297E-04
(PID.TID 0000.0001) %MON advcfl_wvel_max              =   1.9783016618207E-03
(PID.TID 0000.0001) %MON advcfl_W_hf_max              =   1.9783016618207E-03
(PID.TID 0000.0001) %MON pe_b_mean                    =  -8.3023970636464E-01
(PID.TID 0000.0001) %MON ke_max                       =   3.2304087172028E-05
(PID.TID 0000.0001) %MON ke_mean                      =   7.6531533009682E-08
(PID.TID 0000.0001) %MON ke_vol                       =   4.2724998630035E+12
(PID.TID 0000.0001) // =======================================================
(PID.TID 0000.0001) // End MONITOR dynamic field statistics
(PID.TID 0000.0001) // =======================================================
(PID.TID 0000.0001) // =======================================================
(PID.TID 0000.0001) // Begin OBCS MONITOR field statistics
(PID.TID 0000.0001) // =======================================================
(PID.TID 0000.0001) %MON obc_N_vVel_max               =   1.4738438922104E-05
(PID.TID 0000.0001) %MON obc_N_vVel_min               =   1.4738438922104E-05
(PID.TID 0000.0001) %MON obc_N_vVel_mean              =   1.4738438922104E-05
(PID.TID 0000.0001) %MON obc_N_vVel_sd                =   3.5914965790042E-12
(PID.TID 0000.0001) %MON obc_N_vVel_Int               =   9.7273696885885E+02
(PID.TID 0000.0001) // =======================================================
(PID.TID 0000.0001) // End OBCS MONITOR field statistics
(PID.TID 0000.0001) // =======================================================
 cg2d: Sum(rhs),rhsMax =   4.51049770538432E+00  2.99912192093354E+02
(PID.TID 0000.0001)      cg2d_init_res =   5.89889533749081E-06
(PID.TID 0000.0001)      cg2d_iters(min,last) =      -1      78
(PID.TID 0000.0001)      cg2d_last_res =   8.84481001377185E-12
(PID.TID 0000.0001) // =======================================================
(PID.TID 0000.0001) // Begin MONITOR dynamic field statistics
(PID.TID 0000.0001) // =======================================================
(PID.TID 0000.0001) %MON time_tsnumber                =                   760
(PID.TID 0000.0001) %MON time_secondsf                =   7.6000000000000E+04
(PID.TID 0000.0001) %MON dynstat_eta_max              =   5.7972341355382E+00
(PID.TID 0000.0001) %MON dynstat_eta_min              =  -1.4193713761083E+01
(PID.TID 0000.0001) %MON dynstat_eta_mean             =  -2.5050986189886E+00
(PID.TID 0000.0001) %MON dynstat_eta_sd               =   4.9502957148412E+00
(PID.TID 0000.0001) %MON dynstat_eta_del2             =   2.0714428235912E-01
(PID.TID 0000.0001) %MON dynstat_uvel_max             =   2.3716862539693E-03
(PID.TID 0000.0001) %MON dynstat_uvel_min             =  -1.0588910254434E-02
(PID.TID 0000.0001) %MON dynstat_uvel_mean            =  -1.1740995074608E-07
(PID.TID 0000.0001) %MON dynstat_uvel_sd              =   3.2386780604383E-04
(PID.TID 0000.0001) %MON dynstat_uvel_del2            =   5.3895435569015E-07
(PID.TID 0000.0001) %MON dynstat_vvel_max             =   8.6671968972594E-03
(PID.TID 0000.0001) %MON dynstat_vvel_min             =  -4.2632139160101E-03
(PID.TID 0000.0001) %MON dynstat_vvel_mean            =   1.4978187923076E-05
(PID.TID 0000.0001) %MON dynstat_vvel_sd              =   2.2519277752892E-04
(PID.TID 0000.0001) %MON dynstat_vvel_del2            =   4.8242534619426E-07
(PID.TID 0000.0001) %MON dynstat_wvel_max             =   3.8638932307166E-04
(PID.TID 0000.0001) %MON dynstat_wvel_min             =  -3.9681310444075E-04
(PID.TID 0000.0001) %MON dynstat_wvel_mean            =   6.6568612465729E-09
(PID.TID 0000.0001) %MON dynstat_wvel_sd              =   1.5866288039664E-05
(PID.TID 0000.0001) %MON dynstat_wvel_del2            =   5.8664770847450E-08
(PID.TID 0000.0001) %MON dynstat_theta_max            =   1.2000000000000E+00
(PID.TID 0000.0001) %MON dynstat_theta_min            =  -1.0000000000000E+00
(PID.TID 0000.0001) %MON dynstat_theta_mean           =   5.6892267184062E-01
(PID.TID 0000.0001) %MON dynstat_theta_sd             =   8.6848719061800E-01
(PID.TID 0000.0001) %MON dynstat_theta_del2           =   1.5122619202294E-06
(PID.TID 0000.0001) %MON dynstat_salt_max             =   3.4700000000000E+01
(PID.TID 0000.0001) %MON dynstat_salt_min             =   3.4000000000000E+01
(PID.TID 0000.0001) %MON dynstat_salt_mean            =   3.4499183235898E+01
(PID.TID 0000.0001) %MON dynstat_salt_sd              =   2.7633053454676E-01
(PID.TID 0000.0001) %MON dynstat_salt_del2            =   5.8602818316619E-07
(PID.TID 0000.0001) %MON advcfl_uvel_max              =   1.0588910254434E-03
(PID.TID 0000.0001) %MON advcfl_vvel_max              =   8.6671968972594E-04
(PID.TID 0000.0001) %MON advcfl_wvel_max              =   1.9840655222038E-03
(PID.TID 0000.0001) %MON advcfl_W_hf_max              =   1.9840655222038E-03
(PID.TID 0000.0001) %MON pe_b_mean                    =  -8.3024320749292E-01
(PID.TID 0000.0001) %MON ke_max                       =   3.2476116917811E-05
(PID.TID 0000.0001) %MON ke_mean                      =   7.6871151643245E-08
(PID.TID 0000.0001) %MON ke_vol                       =   4.2724997885841E+12
(PID.TID 0000.0001) // =======================================================
(PID.TID 0000.0001) // End MONITOR dynamic field statistics
(PID.TID 0000.0001) // =======================================================
(PID.TID 0000.0001) // =======================================================
(PID.TID 0000.0001) // Begin OBCS MONITOR field statistics
(PID.TID 0000.0001) // =======================================================
(PID.TID 0000.0001) %MON obc_N_vVel_max               =   1.4738787455762E-05
(PID.TID 0000.0001) %MON obc_N_vVel_min               =   1.4738787455761E-05
(PID.TID 0000.0001) %MON obc_N_vVel_mean              =   1.4738787455761E-05
(PID.TID 0000.0001) %MON obc_N_vVel_sd                =   1.4996323850793E-12
(PID.TID 0000.0001) %MON obc_N_vVel_Int               =   9.7275997208026E+02
(PID.TID 0000.0001) // =======================================================
(PID.TID 0000.0001) // End OBCS MONITOR field statistics
(PID.TID 0000.0001) // =======================================================
 cg2d: Sum(rhs),rhsMax =   4.51051910201527E+00  2.99912267749126E+02
(PID.TID 0000.0001)      cg2d_init_res =   5.89660184373497E-06
(PID.TID 0000.0001)      cg2d_iters(min,last) =      -1      78
(PID.TID 0000.0001)      cg2d_last_res =   8.85130570219415E-12
(PID.TID 0000.0001) // =======================================================
(PID.TID 0000.0001) // Begin MONITOR dynamic field statistics
(PID.TID 0000.0001) // =======================================================
(PID.TID 0000.0001) %MON time_tsnumber                =                   761
(PID.TID 0000.0001) %MON time_secondsf                =   7.6100000000000E+04
(PID.TID 0000.0001) %MON dynstat_eta_max              =   5.7972246578834E+00
(PID.TID 0000.0001) %MON dynstat_eta_min              =  -1.4193738381031E+01
(PID.TID 0000.0001) %MON dynstat_eta_mean             =  -2.5051111344651E+00
(PID.TID 0000.0001) %MON dynstat_eta_sd               =   4.9502999479561E+00
(PID.TID 0000.0001) %MON dynstat_eta_del2             =   2.0714429746349E-01
(PID.TID 0000.0001) %MON dynstat_uvel_max             =   2.3785564238032E-03
(PID.TID 0000.0001) %MON dynstat_uvel_min             =  -1.0619879385874E-02
(PID.TID 0000.0001) %MON dynstat_uvel_mean            =  -1.1740905943077E-07
(PID.TID 0000.0001) %MON dynstat_uvel_sd              =   3.2464006820964E-04
(PID.TID 0000.0001) %MON dynstat_uvel_del2            =   5.3998409073387E-07
(PID.TID 0000.0001) %MON dynstat_vvel_max             =   8.6916693099730E-03
(PID.TID 0000.0001) %MON dynstat_vvel_min             =  -4.2725752483781E-03
(PID.TID 0000.0001) %MON dynstat_vvel_mean            =   1.4978603142758E-05
(PID.TID 0000.0001) %MON dynstat_vvel_sd              =   2.2563403595643E-04
(PID.TID 0000.0001) %MON dynstat_vvel_del2            =   4.8320164271253E-07
(PID.TID 0000.0001) %MON dynstat_wvel_max             =   3.8766543195252E-04
(PID.TID 0000.0001) %MON dynstat_wvel_min             =  -3.9796897060746E-04
(PID.TID 0000.0001) %MON dynstat_wvel_mean            =   6.6574422970568E-09
(PID.TID 0000.0001) %MON dynstat_wvel_sd              =   1.5850636555372E-05
(PID.TID 0000.0001) %MON dynstat_wvel_del2            =   5.8512205799261E-08
(PID.TID 0000.0001) %MON dynstat_theta_max            =   1.2000000000000E+00
(PID.TID 0000.0001) %MON dynstat_theta_min            =  -1.0000000000000E+00
(PID.TID 0000.0001) %MON dynstat_theta_mean           =   5.6892221100890E-01
(PID.TID 0000.0001) %MON dynstat_theta_sd             =   8.6848693754690E-01
(PID.TID 0000.0001) %MON dynstat_theta_del2           =   1.5147004253604E-06
(PID.TID 0000.0001) %MON dynstat_salt_max             =   3.4700000000000E+01
(PID.TID 0000.0001) %MON dynstat_salt_min             =   3.4000000000000E+01
(PID.TID 0000.0001) %MON dynstat_salt_mean            =   3.4499183051762E+01
(PID.TID 0000.0001) %MON dynstat_salt_sd              =   2.7633043850542E-01
(PID.TID 0000.0001) %MON dynstat_salt_del2            =   5.8705508163733E-07
(PID.TID 0000.0001) %MON advcfl_uvel_max              =   1.0619879385874E-03
(PID.TID 0000.0001) %MON advcfl_vvel_max              =   8.6916693099730E-04
(PID.TID 0000.0001) %MON advcfl_wvel_max              =   1.9898448530373E-03
(PID.TID 0000.0001) %MON advcfl_W_hf_max              =   1.9898448530373E-03
(PID.TID 0000.0001) %MON pe_b_mean                    =  -8.3024670631342E-01
(PID.TID 0000.0001) %MON ke_max                       =   3.2648961252524E-05
(PID.TID 0000.0001) %MON ke_mean                      =   7.7216062705594E-08
(PID.TID 0000.0001) %MON ke_vol                       =   4.2724997142032E+12
(PID.TID 0000.0001) // =======================================================
(PID.TID 0000.0001) // End MONITOR dynamic field statistics
(PID.TID 0000.0001) // =======================================================
(PID.TID 0000.0001) // =======================================================
(PID.TID 0000.0001) // Begin OBCS MONITOR field statistics
(PID.TID 0000.0001) // =======================================================
(PID.TID 0000.0001) %MON obc_N_vVel_max               =   1.4739113323532E-05
(PID.TID 0000.0001) %MON obc_N_vVel_min               =   1.4739113323532E-05
(PID.TID 0000.0001) %MON obc_N_vVel_mean              =   1.4739113323532E-05
(PID.TID 0000.0001) %MON obc_N_vVel_sd                =  -5.1698788284564E-25
(PID.TID 0000.0001) %MON obc_N_vVel_Int               =   9.7278147935309E+02
(PID.TID 0000.0001) // =======================================================
(PID.TID 0000.0001) // End OBCS MONITOR field statistics
(PID.TID 0000.0001) // =======================================================
 cg2d: Sum(rhs),rhsMax =   4.51054048679446E+00  2.99912343399530E+02
(PID.TID 0000.0001)      cg2d_init_res =   5.89888619124457E-06
(PID.TID 0000.0001)      cg2d_iters(min,last) =      -1      78
(PID.TID 0000.0001)      cg2d_last_res =   8.85817338020590E-12
(PID.TID 0000.0001) // =======================================================
(PID.TID 0000.0001) // Begin MONITOR dynamic field statistics
(PID.TID 0000.0001) // =======================================================
(PID.TID 0000.0001) %MON time_tsnumber                =                   762
(PID.TID 0000.0001) %MON time_secondsf                =   7.6200000000000E+04
(PID.TID 0000.0001) %MON dynstat_eta_max              =   5.7972152015257E+00
(PID.TID 0000.0001) %MON dynstat_eta_min              =  -1.4193762999416E+01
(PID.TID 0000.0001) %MON dynstat_eta_mean             =  -2.5051236433203E+00
(PID.TID 0000.0001) %MON dynstat_eta_sd               =   4.9503041794026E+00
(PID.TID 0000.0001) %MON dynstat_eta_del2             =   2.0714431260764E-01
(PID.TID 0000.0001) %MON dynstat_uvel_max             =   2.3854429589463E-03
(PID.TID 0000.0001) %MON dynstat_uvel_min             =  -1.0650923217565E-02
(PID.TID 0000.0001) %MON dynstat_uvel_mean            =  -1.1740763331345E-07
(PID.TID 0000.0001) %MON dynstat_uvel_sd              =   3.2541559771859E-04
(PID.TID 0000.0001) %MON dynstat_uvel_del2            =   5.4101717460863E-07
(PID.TID 0000.0001) %MON dynstat_vvel_max             =   8.7161922293939E-03
(PID.TID 0000.0001) %MON dynstat_vvel_min             =  -4.2819450162286E-03
(PID.TID 0000.0001) %MON dynstat_vvel_mean            =   1.4978971325254E-05
(PID.TID 0000.0001) %MON dynstat_vvel_sd              =   2.2609052610621E-04
(PID.TID 0000.0001) %MON dynstat_vvel_del2            =   4.8417992061909E-07
(PID.TID 0000.0001) %MON dynstat_wvel_max             =   3.8894467148523E-04
(PID.TID 0000.0001) %MON dynstat_wvel_min             =  -3.9912793882472E-04
(PID.TID 0000.0001) %MON dynstat_wvel_mean            =   6.6578762436687E-09
(PID.TID 0000.0001) %MON dynstat_wvel_sd              =   1.5893260276509E-05
(PID.TID 0000.0001) %MON dynstat_wvel_del2            =   5.8920936690428E-08
(PID.TID 0000.0001) %MON dynstat_theta_max            =   1.2000000000000E+00
(PID.TID 0000.0001) %MON dynstat_theta_min            =  -1.0000000000000E+00
(PID.TID 0000.0001) %MON dynstat_theta_mean           =   5.6892174931867E-01
(PID.TID 0000.0001) %MON dynstat_theta_sd             =   8.6848668401984E-01
(PID.TID 0000.0001) %MON dynstat_theta_del2           =   1.5168983981077E-06
(PID.TID 0000.0001) %MON dynstat_salt_max             =   3.4700000000000E+01
(PID.TID 0000.0001) %MON dynstat_salt_min             =   3.4000000000000E+01
(PID.TID 0000.0001) %MON dynstat_salt_mean            =   3.4499182867284E+01
(PID.TID 0000.0001) %MON dynstat_salt_sd              =   2.7633034228341E-01
(PID.TID 0000.0001) %MON dynstat_salt_del2            =   5.8802009934793E-07
(PID.TID 0000.0001) %MON advcfl_uvel_max              =   1.0650923217565E-03
(PID.TID 0000.0001) %MON advcfl_vvel_max              =   8.7161922293939E-04
(PID.TID 0000.0001) %MON advcfl_wvel_max              =   1.9956396941236E-03
(PID.TID 0000.0001) %MON advcfl_W_hf_max              =   1.9956396941236E-03
(PID.TID 0000.0001) %MON pe_b_mean                    =  -8.3025020280297E-01
(PID.TID 0000.0001) %MON ke_max                       =   3.2822623067037E-05
(PID.TID 0000.0001) %MON ke_mean                      =   7.7566237836770E-08
(PID.TID 0000.0001) %MON ke_vol                       =   4.2724996398613E+12
(PID.TID 0000.0001) // =======================================================
(PID.TID 0000.0001) // End MONITOR dynamic field statistics
(PID.TID 0000.0001) // =======================================================
(PID.TID 0000.0001) // =======================================================
(PID.TID 0000.0001) // Begin OBCS MONITOR field statistics
(PID.TID 0000.0001) // =======================================================
(PID.TID 0000.0001) %MON obc_N_vVel_max               =   1.4739405996744E-05
(PID.TID 0000.0001) %MON obc_N_vVel_min               =   1.4739405996744E-05
(PID.TID 0000.0001) %MON obc_N_vVel_mean              =   1.4739405996744E-05
(PID.TID 0000.0001) %MON obc_N_vVel_sd                =   2.8078577623156E-12
(PID.TID 0000.0001) %MON obc_N_vVel_Int               =   9.7280079578510E+02
(PID.TID 0000.0001) // =======================================================
(PID.TID 0000.0001) // End OBCS MONITOR field statistics
(PID.TID 0000.0001) // =======================================================
 cg2d: Sum(rhs),rhsMax =   4.51056185957449E+00  2.99912419044197E+02
(PID.TID 0000.0001)      cg2d_init_res =   5.90553500542787E-06
(PID.TID 0000.0001)      cg2d_iters(min,last) =      -1      78
(PID.TID 0000.0001)      cg2d_last_res =   8.86586633262760E-12
(PID.TID 0000.0001) // =======================================================
(PID.TID 0000.0001) // Begin MONITOR dynamic field statistics
(PID.TID 0000.0001) // =======================================================
(PID.TID 0000.0001) %MON time_tsnumber                =                   763
(PID.TID 0000.0001) %MON time_secondsf                =   7.6300000000000E+04
(PID.TID 0000.0001) %MON dynstat_eta_max              =   5.7972057666349E+00
(PID.TID 0000.0001) %MON dynstat_eta_min              =  -1.4193787603972E+01
(PID.TID 0000.0001) %MON dynstat_eta_mean             =  -2.5051361454694E+00
(PID.TID 0000.0001) %MON dynstat_eta_sd               =   4.9503084091425E+00
(PID.TID 0000.0001) %MON dynstat_eta_del2             =   2.0714432779140E-01
(PID.TID 0000.0001) %MON dynstat_uvel_max             =   2.3923458928650E-03
(PID.TID 0000.0001) %MON dynstat_uvel_min             =  -1.0682041795196E-02
(PID.TID 0000.0001) %MON dynstat_uvel_mean            =  -1.1740574195435E-07
(PID.TID 0000.0001) %MON dynstat_uvel_sd              =   3.2619440347776E-04
(PID.TID 0000.0001) %MON dynstat_uvel_del2            =   5.4205367684019E-07
(PID.TID 0000.0001) %MON dynstat_vvel_max             =   8.7407657080694E-03
(PID.TID 0000.0001) %MON dynstat_vvel_min             =  -4.2913232503077E-03
(PID.TID 0000.0001) %MON dynstat_vvel_mean            =   1.4979281847509E-05
(PID.TID 0000.0001) %MON dynstat_vvel_sd              =   2.2656082691582E-04
(PID.TID 0000.0001) %MON dynstat_vvel_del2            =   4.8533607252875E-07
(PID.TID 0000.0001) %MON dynstat_wvel_max             =   3.9022704882577E-04
(PID.TID 0000.0001) %MON dynstat_wvel_min             =  -4.0029001709039E-04
(PID.TID 0000.0001) %MON dynstat_wvel_mean            =   6.6581583413095E-09
(PID.TID 0000.0001) %MON dynstat_wvel_sd              =   1.5987440339939E-05
(PID.TID 0000.0001) %MON dynstat_wvel_del2            =   5.9828141521570E-08
(PID.TID 0000.0001) %MON dynstat_theta_max            =   1.2000000000000E+00
(PID.TID 0000.0001) %MON dynstat_theta_min            =  -1.0000000000000E+00
(PID.TID 0000.0001) %MON dynstat_theta_mean           =   5.6892128678779E-01
(PID.TID 0000.0001) %MON dynstat_theta_sd             =   8.6848643000207E-01
(PID.TID 0000.0001) %MON dynstat_theta_del2           =   1.5188839212069E-06
(PID.TID 0000.0001) %MON dynstat_salt_max             =   3.4700000000000E+01
(PID.TID 0000.0001) %MON dynstat_salt_min             =   3.4000000000000E+01
(PID.TID 0000.0001) %MON dynstat_salt_mean            =   3.4499182682470E+01
(PID.TID 0000.0001) %MON dynstat_salt_sd              =   2.7633024586937E-01
(PID.TID 0000.0001) %MON dynstat_salt_del2            =   5.8893060426190E-07
(PID.TID 0000.0001) %MON advcfl_uvel_max              =   1.0682041795196E-03
(PID.TID 0000.0001) %MON advcfl_vvel_max              =   8.7407657080694E-04
(PID.TID 0000.0001) %MON advcfl_wvel_max              =   2.0014500854520E-03
(PID.TID 0000.0001) %MON advcfl_W_hf_max              =   2.0014500854520E-03
(PID.TID 0000.0001) %MON pe_b_mean                    =  -8.3025369693396E-01
(PID.TID 0000.0001) %MON ke_max                       =   3.2997105256057E-05
(PID.TID 0000.0001) %MON ke_mean                      =   7.7921386105403E-08
(PID.TID 0000.0001) %MON ke_vol                       =   4.2724995655587E+12
(PID.TID 0000.0001) // =======================================================
(PID.TID 0000.0001) // End MONITOR dynamic field statistics
(PID.TID 0000.0001) // =======================================================
(PID.TID 0000.0001) // =======================================================
(PID.TID 0000.0001) // Begin OBCS MONITOR field statistics
(PID.TID 0000.0001) // =======================================================
(PID.TID 0000.0001) %MON obc_N_vVel_max               =   1.4739655968725E-05
(PID.TID 0000.0001) %MON obc_N_vVel_min               =   1.4739655968725E-05
(PID.TID 0000.0001) %MON obc_N_vVel_mean              =   1.4739655968725E-05
(PID.TID 0000.0001) %MON obc_N_vVel_sd                =   3.4892785272911E-12
(PID.TID 0000.0001) %MON obc_N_vVel_Int               =   9.7281729393586E+02
(PID.TID 0000.0001) // =======================================================
(PID.TID 0000.0001) // End OBCS MONITOR field statistics
(PID.TID 0000.0001) // =======================================================
 cg2d: Sum(rhs),rhsMax =   4.51058322019547E+00  2.99912494682835E+02
(PID.TID 0000.0001)      cg2d_init_res =   5.91596288806158E-06
(PID.TID 0000.0001)      cg2d_iters(min,last) =      -1      78
(PID.TID 0000.0001)      cg2d_last_res =   8.87442928157790E-12
(PID.TID 0000.0001) // =======================================================
(PID.TID 0000.0001) // Begin MONITOR dynamic field statistics
(PID.TID 0000.0001) // =======================================================
(PID.TID 0000.0001) %MON time_tsnumber                =                   764
(PID.TID 0000.0001) %MON time_secondsf                =   7.6400000000000E+04
(PID.TID 0000.0001) %MON dynstat_eta_max              =   5.7971963534004E+00
(PID.TID 0000.0001) %MON dynstat_eta_min              =  -1.4193812194592E+01
(PID.TID 0000.0001) %MON dynstat_eta_mean             =  -2.5051486408210E+00
(PID.TID 0000.0001) %MON dynstat_eta_sd               =   4.9503126371440E+00
(PID.TID 0000.0001) %MON dynstat_eta_del2             =   2.0714434301496E-01
(PID.TID 0000.0001) %MON dynstat_uvel_max             =   2.3992652587665E-03
(PID.TID 0000.0001) %MON dynstat_uvel_min             =  -1.0713235163795E-02
(PID.TID 0000.0001) %MON dynstat_uvel_mean            =  -1.1740347237344E-07
(PID.TID 0000.0001) %MON dynstat_uvel_sd              =   3.2697649273006E-04
(PID.TID 0000.0001) %MON dynstat_uvel_del2            =   5.4309366358267E-07
(PID.TID 0000.0001) %MON dynstat_vvel_max             =   8.7653897984756E-03
(PID.TID 0000.0001) %MON dynstat_vvel_min             =  -4.3007099813863E-03
(PID.TID 0000.0001) %MON dynstat_vvel_mean            =   1.4979525782501E-05
(PID.TID 0000.0001) %MON dynstat_vvel_sd              =   2.2704251224651E-04
(PID.TID 0000.0001) %MON dynstat_vvel_del2            =   4.8663102764634E-07
(PID.TID 0000.0001) %MON dynstat_wvel_max             =   3.9151257111811E-04
(PID.TID 0000.0001) %MON dynstat_wvel_min             =  -4.0145521335468E-04
(PID.TID 0000.0001) %MON dynstat_wvel_mean            =   6.6582881025520E-09
(PID.TID 0000.0001) %MON dynstat_wvel_sd              =   1.6121739860525E-05
(PID.TID 0000.0001) %MON dynstat_wvel_del2            =   6.1119469866873E-08
(PID.TID 0000.0001) %MON dynstat_theta_max            =   1.2000000000000E+00
(PID.TID 0000.0001) %MON dynstat_theta_min            =  -1.0000000000000E+00
(PID.TID 0000.0001) %MON dynstat_theta_mean           =   5.6892082343440E-01
(PID.TID 0000.0001) %MON dynstat_theta_sd             =   8.6848617546235E-01
(PID.TID 0000.0001) %MON dynstat_theta_del2           =   1.5207007749322E-06
(PID.TID 0000.0001) %MON dynstat_salt_max             =   3.4700000000000E+01
(PID.TID 0000.0001) %MON dynstat_salt_min             =   3.4000000000000E+01
(PID.TID 0000.0001) %MON dynstat_salt_mean            =   3.4499182497325E+01
(PID.TID 0000.0001) %MON dynstat_salt_sd              =   2.7633014925346E-01
(PID.TID 0000.0001) %MON dynstat_salt_del2            =   5.8979806883588E-07
(PID.TID 0000.0001) %MON advcfl_uvel_max              =   1.0713235163795E-03
(PID.TID 0000.0001) %MON advcfl_vvel_max              =   8.7653897984756E-04
(PID.TID 0000.0001) %MON advcfl_wvel_max              =   2.0072760667734E-03
(PID.TID 0000.0001) %MON advcfl_W_hf_max              =   2.0072760667734E-03
(PID.TID 0000.0001) %MON pe_b_mean                    =  -8.3025718867815E-01
(PID.TID 0000.0001) %MON ke_max                       =   3.3172410718356E-05
(PID.TID 0000.0001) %MON ke_mean                      =   7.8280985895625E-08
(PID.TID 0000.0001) %MON ke_vol                       =   4.2724994912959E+12
(PID.TID 0000.0001) // =======================================================
(PID.TID 0000.0001) // End MONITOR dynamic field statistics
(PID.TID 0000.0001) // =======================================================
(PID.TID 0000.0001) // =======================================================
(PID.TID 0000.0001) // Begin OBCS MONITOR field statistics
(PID.TID 0000.0001) // =======================================================
(PID.TID 0000.0001) %MON obc_N_vVel_max               =   1.4739855023262E-05
(PID.TID 0000.0001) %MON obc_N_vVel_min               =   1.4739855023261E-05
(PID.TID 0000.0001) %MON obc_N_vVel_mean              =   1.4739855023262E-05
(PID.TID 0000.0001) %MON obc_N_vVel_sd                =  -8.1684085489611E-24
(PID.TID 0000.0001) %MON obc_N_vVel_Int               =   9.7283043153527E+02
(PID.TID 0000.0001) // =======================================================
(PID.TID 0000.0001) // End OBCS MONITOR field statistics
(PID.TID 0000.0001) // =======================================================
 cg2d: Sum(rhs),rhsMax =   4.51060456849256E+00  2.99912570315243E+02
(PID.TID 0000.0001)      cg2d_init_res =   5.92927210347295E-06
(PID.TID 0000.0001)      cg2d_iters(min,last) =      -1      78
(PID.TID 0000.0001)      cg2d_last_res =   8.88343125332111E-12
(PID.TID 0000.0001) // =======================================================
(PID.TID 0000.0001) // Begin MONITOR dynamic field statistics
(PID.TID 0000.0001) // =======================================================
(PID.TID 0000.0001) %MON time_tsnumber                =                   765
(PID.TID 0000.0001) %MON time_secondsf                =   7.6500000000000E+04
(PID.TID 0000.0001) %MON dynstat_eta_max              =   5.7971869620230E+00
(PID.TID 0000.0001) %MON dynstat_eta_min              =  -1.4193836771047E+01
(PID.TID 0000.0001) %MON dynstat_eta_mean             =  -2.5051611292820E+00
(PID.TID 0000.0001) %MON dynstat_eta_sd               =   4.9503168633745E+00
(PID.TID 0000.0001) %MON dynstat_eta_del2             =   2.0714435827849E-01
(PID.TID 0000.0001) %MON dynstat_uvel_max             =   2.4062010896451E-03
(PID.TID 0000.0001) %MON dynstat_uvel_min             =  -1.0744503367548E-02
(PID.TID 0000.0001) %MON dynstat_uvel_mean            =  -1.1740092152321E-07
(PID.TID 0000.0001) %MON dynstat_uvel_sd              =   3.2776187079492E-04
(PID.TID 0000.0001) %MON dynstat_uvel_del2            =   5.4413719254013E-07
(PID.TID 0000.0001) %MON dynstat_vvel_max             =   8.7900645530570E-03
(PID.TID 0000.0001) %MON dynstat_vvel_min             =  -4.3101052398757E-03
(PID.TID 0000.0001) %MON dynstat_vvel_mean            =   1.4979696188815E-05
(PID.TID 0000.0001) %MON dynstat_vvel_sd              =   2.2753238863689E-04
(PID.TID 0000.0001) %MON dynstat_vvel_del2            =   4.8801457468695E-07
(PID.TID 0000.0001) %MON dynstat_wvel_max             =   3.9280124550650E-04
(PID.TID 0000.0001) %MON dynstat_wvel_min             =  -4.0262353557040E-04
(PID.TID 0000.0001) %MON dynstat_wvel_mean            =   6.6582696959529E-09
(PID.TID 0000.0001) %MON dynstat_wvel_sd              =   1.6281437888078E-05
(PID.TID 0000.0001) %MON dynstat_wvel_del2            =   6.2648816656523E-08
(PID.TID 0000.0001) %MON dynstat_theta_max            =   1.2000000000000E+00
(PID.TID 0000.0001) %MON dynstat_theta_min            =  -1.0000000000000E+00
(PID.TID 0000.0001) %MON dynstat_theta_mean           =   5.6892035927667E-01
(PID.TID 0000.0001) %MON dynstat_theta_sd             =   8.6848592038339E-01
(PID.TID 0000.0001) %MON dynstat_theta_del2           =   1.5224047446497E-06
(PID.TID 0000.0001) %MON dynstat_salt_max             =   3.4700000000000E+01
(PID.TID 0000.0001) %MON dynstat_salt_min             =   3.4000000000000E+01
(PID.TID 0000.0001) %MON dynstat_salt_mean            =   3.4499182311854E+01
(PID.TID 0000.0001) %MON dynstat_salt_sd              =   2.7633005242968E-01
(PID.TID 0000.0001) %MON dynstat_salt_del2            =   5.9063709091435E-07
(PID.TID 0000.0001) %MON advcfl_uvel_max              =   1.0744503367548E-03
(PID.TID 0000.0001) %MON advcfl_vvel_max              =   8.7900645530570E-04
(PID.TID 0000.0001) %MON advcfl_wvel_max              =   2.0131176778520E-03
(PID.TID 0000.0001) %MON advcfl_W_hf_max              =   2.0131176778520E-03
(PID.TID 0000.0001) %MON pe_b_mean                    =  -8.3026067800713E-01
(PID.TID 0000.0001) %MON ke_max                       =   3.3348542355479E-05
(PID.TID 0000.0001) %MON ke_mean                      =   7.8644336257297E-08
(PID.TID 0000.0001) %MON ke_vol                       =   4.2724994170735E+12
(PID.TID 0000.0001) // =======================================================
(PID.TID 0000.0001) // End MONITOR dynamic field statistics
(PID.TID 0000.0001) // =======================================================
(PID.TID 0000.0001) // =======================================================
(PID.TID 0000.0001) // Begin OBCS MONITOR field statistics
(PID.TID 0000.0001) // =======================================================
(PID.TID 0000.0001) %MON obc_N_vVel_max               =   1.4739996413404E-05
(PID.TID 0000.0001) %MON obc_N_vVel_min               =   1.4739996413403E-05
(PID.TID 0000.0001) %MON obc_N_vVel_mean              =   1.4739996413403E-05
(PID.TID 0000.0001) %MON obc_N_vVel_sd                =   4.1740258326822E-12
(PID.TID 0000.0001) %MON obc_N_vVel_Int               =   9.7283976328461E+02
(PID.TID 0000.0001) // =======================================================
(PID.TID 0000.0001) // End OBCS MONITOR field statistics
(PID.TID 0000.0001) // =======================================================
 cg2d: Sum(rhs),rhsMax =   4.51062590428501E+00  2.99912645941299E+02
(PID.TID 0000.0001)      cg2d_init_res =   5.94431507519833E-06
(PID.TID 0000.0001)      cg2d_iters(min,last) =      -1      78
(PID.TID 0000.0001)      cg2d_last_res =   8.89229972905345E-12
(PID.TID 0000.0001) // =======================================================
(PID.TID 0000.0001) // Begin MONITOR dynamic field statistics
(PID.TID 0000.0001) // =======================================================
(PID.TID 0000.0001) %MON time_tsnumber                =                   766
(PID.TID 0000.0001) %MON time_secondsf                =   7.6600000000000E+04
(PID.TID 0000.0001) %MON dynstat_eta_max              =   5.7971775927150E+00
(PID.TID 0000.0001) %MON dynstat_eta_min              =  -1.4193861333086E+01
(PID.TID 0000.0001) %MON dynstat_eta_mean             =  -2.5051736107509E+00
(PID.TID 0000.0001) %MON dynstat_eta_sd               =   4.9503210877991E+00
(PID.TID 0000.0001) %MON dynstat_eta_del2             =   2.0714437358212E-01
(PID.TID 0000.0001) %MON dynstat_uvel_max             =   2.4131534182494E-03
(PID.TID 0000.0001) %MON dynstat_uvel_min             =  -1.0775846449924E-02
(PID.TID 0000.0001) %MON dynstat_uvel_mean            =  -1.1739816934318E-07
(PID.TID 0000.0001) %MON dynstat_uvel_sd              =   3.2855054083560E-04
(PID.TID 0000.0001) %MON dynstat_uvel_del2            =   5.4518430761106E-07
(PID.TID 0000.0001) %MON dynstat_vvel_max             =   8.8147900243873E-03
(PID.TID 0000.0001) %MON dynstat_vvel_min             =  -4.3195090560033E-03
(PID.TID 0000.0001) %MON dynstat_vvel_mean            =   1.4979788315640E-05
(PID.TID 0000.0001) %MON dynstat_vvel_sd              =   2.2802679460157E-04
(PID.TID 0000.0001) %MON dynstat_vvel_del2            =   4.8943008376948E-07
(PID.TID 0000.0001) %MON dynstat_wvel_max             =   3.9409307911829E-04
(PID.TID 0000.0001) %MON dynstat_wvel_min             =  -4.0379499172639E-04
(PID.TID 0000.0001) %MON dynstat_wvel_mean            =   6.6581113699279E-09
(PID.TID 0000.0001) %MON dynstat_wvel_sd              =   1.6450193622982E-05
(PID.TID 0000.0001) %MON dynstat_wvel_del2            =   6.4259157936604E-08
(PID.TID 0000.0001) %MON dynstat_theta_max            =   1.2000000000000E+00
(PID.TID 0000.0001) %MON dynstat_theta_min            =  -1.0000000000000E+00
(PID.TID 0000.0001) %MON dynstat_theta_mean           =   5.6891989433146E-01
(PID.TID 0000.0001) %MON dynstat_theta_sd             =   8.6848566475284E-01
(PID.TID 0000.0001) %MON dynstat_theta_del2           =   1.5240579694820E-06
(PID.TID 0000.0001) %MON dynstat_salt_max             =   3.4700000000000E+01
(PID.TID 0000.0001) %MON dynstat_salt_min             =   3.4000000000000E+01
(PID.TID 0000.0001) %MON dynstat_salt_mean            =   3.4499182126063E+01
(PID.TID 0000.0001) %MON dynstat_salt_sd              =   2.7632995539442E-01
(PID.TID 0000.0001) %MON dynstat_salt_del2            =   5.9146391142680E-07
(PID.TID 0000.0001) %MON advcfl_uvel_max              =   1.0775846449924E-03
(PID.TID 0000.0001) %MON advcfl_vvel_max              =   8.8147900243873E-04
(PID.TID 0000.0001) %MON advcfl_wvel_max              =   2.0189749586320E-03
(PID.TID 0000.0001) %MON advcfl_W_hf_max              =   2.0189749586320E-03
(PID.TID 0000.0001) %MON pe_b_mean                    =  -8.3026416489065E-01
(PID.TID 0000.0001) %MON ke_max                       =   3.3525503074035E-05
(PID.TID 0000.0001) %MON ke_mean                      =   7.9010622920569E-08
(PID.TID 0000.0001) %MON ke_vol                       =   4.2724993428921E+12
(PID.TID 0000.0001) // =======================================================
(PID.TID 0000.0001) // End MONITOR dynamic field statistics
(PID.TID 0000.0001) // =======================================================
(PID.TID 0000.0001) // =======================================================
(PID.TID 0000.0001) // Begin OBCS MONITOR field statistics
(PID.TID 0000.0001) // =======================================================
(PID.TID 0000.0001) %MON obc_N_vVel_max               =   1.4740075059919E-05
(PID.TID 0000.0001) %MON obc_N_vVel_min               =   1.4740075059919E-05
(PID.TID 0000.0001) %MON obc_N_vVel_mean              =   1.4740075059919E-05
(PID.TID 0000.0001) %MON obc_N_vVel_sd                =   2.0336919783402E-12
(PID.TID 0000.0001) %MON obc_N_vVel_Int               =   9.7284495395465E+02
(PID.TID 0000.0001) // =======================================================
(PID.TID 0000.0001) // End OBCS MONITOR field statistics
(PID.TID 0000.0001) // =======================================================
 cg2d: Sum(rhs),rhsMax =   4.51064722738139E+00  2.99912721560953E+02
(PID.TID 0000.0001)      cg2d_init_res =   5.95980565575012E-06
(PID.TID 0000.0001)      cg2d_iters(min,last) =      -1      78
(PID.TID 0000.0001)      cg2d_last_res =   8.90013666479385E-12
(PID.TID 0000.0001) // =======================================================
(PID.TID 0000.0001) // Begin MONITOR dynamic field statistics
(PID.TID 0000.0001) // =======================================================
(PID.TID 0000.0001) %MON time_tsnumber                =                   767
(PID.TID 0000.0001) %MON time_secondsf                =   7.6700000000000E+04
(PID.TID 0000.0001) %MON dynstat_eta_max              =   5.7971682456887E+00
(PID.TID 0000.0001) %MON dynstat_eta_min              =  -1.4193885880469E+01
(PID.TID 0000.0001) %MON dynstat_eta_mean             =  -2.5051860851210E+00
(PID.TID 0000.0001) %MON dynstat_eta_sd               =   4.9503253103820E+00
(PID.TID 0000.0001) %MON dynstat_eta_del2             =   2.0714438892594E-01
(PID.TID 0000.0001) %MON dynstat_uvel_max             =   2.4201222769982E-03
(PID.TID 0000.0001) %MON dynstat_uvel_min             =  -1.0807264453653E-02
(PID.TID 0000.0001) %MON dynstat_uvel_mean            =  -1.1739530031376E-07
(PID.TID 0000.0001) %MON dynstat_uvel_sd              =   3.2934250361080E-04
(PID.TID 0000.0001) %MON dynstat_uvel_del2            =   5.4623503360112E-07
(PID.TID 0000.0001) %MON dynstat_vvel_max             =   8.8395662650815E-03
(PID.TID 0000.0001) %MON dynstat_vvel_min             =  -4.3289214597042E-03
(PID.TID 0000.0001) %MON dynstat_vvel_mean            =   1.4979799682472E-05
(PID.TID 0000.0001) %MON dynstat_vvel_sd              =   2.2852193352138E-04
(PID.TID 0000.0001) %MON dynstat_vvel_del2            =   4.9081965705807E-07
(PID.TID 0000.0001) %MON dynstat_wvel_max             =   3.9538807906998E-04
(PID.TID 0000.0001) %MON dynstat_wvel_min             =  -4.0496958979842E-04
(PID.TID 0000.0001) %MON dynstat_wvel_mean            =   6.6578255750544E-09
(PID.TID 0000.0001) %MON dynstat_wvel_sd              =   1.6611679856484E-05
(PID.TID 0000.0001) %MON dynstat_wvel_del2            =   6.5799826939727E-08
(PID.TID 0000.0001) %MON dynstat_theta_max            =   1.2000000000000E+00
(PID.TID 0000.0001) %MON dynstat_theta_min            =  -1.0000000000000E+00
(PID.TID 0000.0001) %MON dynstat_theta_mean           =   5.6891942861391E-01
(PID.TID 0000.0001) %MON dynstat_theta_sd             =   8.6848540857134E-01
(PID.TID 0000.0001) %MON dynstat_theta_del2           =   1.5257239055860E-06
(PID.TID 0000.0001) %MON dynstat_salt_max             =   3.4700000000000E+01
(PID.TID 0000.0001) %MON dynstat_salt_min             =   3.4000000000000E+01
(PID.TID 0000.0001) %MON dynstat_salt_mean            =   3.4499181939957E+01
(PID.TID 0000.0001) %MON dynstat_salt_sd              =   2.7632985814743E-01
(PID.TID 0000.0001) %MON dynstat_salt_del2            =   5.9229509486161E-07
(PID.TID 0000.0001) %MON advcfl_uvel_max              =   1.0807264453653E-03
(PID.TID 0000.0001) %MON advcfl_vvel_max              =   8.8395662650815E-04
(PID.TID 0000.0001) %MON advcfl_wvel_max              =   2.0248479489921E-03
(PID.TID 0000.0001) %MON advcfl_W_hf_max              =   2.0248479489921E-03
(PID.TID 0000.0001) %MON pe_b_mean                    =  -8.3026764929748E-01
(PID.TID 0000.0001) %MON ke_max                       =   3.3733085022177E-05
(PID.TID 0000.0001) %MON ke_mean                      =   7.9378992904290E-08
(PID.TID 0000.0001) %MON ke_vol                       =   4.2724992687521E+12
(PID.TID 0000.0001) // =======================================================
(PID.TID 0000.0001) // End MONITOR dynamic field statistics
(PID.TID 0000.0001) // =======================================================
(PID.TID 0000.0001) // =======================================================
(PID.TID 0000.0001) // Begin OBCS MONITOR field statistics
(PID.TID 0000.0001) // =======================================================
(PID.TID 0000.0001) %MON obc_N_vVel_max               =   1.4740087630676E-05
(PID.TID 0000.0001) %MON obc_N_vVel_min               =   1.4740087630675E-05
(PID.TID 0000.0001) %MON obc_N_vVel_mean              =   1.4740087630676E-05
(PID.TID 0000.0001) %MON obc_N_vVel_sd                =  -9.1248361322256E-24
(PID.TID 0000.0001) %MON obc_N_vVel_Int               =   9.7284578362459E+02
(PID.TID 0000.0001) // =======================================================
(PID.TID 0000.0001) // End OBCS MONITOR field statistics
(PID.TID 0000.0001) // =======================================================
 cg2d: Sum(rhs),rhsMax =   4.51066853758978E+00  2.99912797174212E+02
(PID.TID 0000.0001)      cg2d_init_res =   5.97446805308730E-06
(PID.TID 0000.0001)      cg2d_iters(min,last) =      -1      78
(PID.TID 0000.0001)      cg2d_last_res =   8.90635911765303E-12
(PID.TID 0000.0001) // =======================================================
(PID.TID 0000.0001) // Begin MONITOR dynamic field statistics
(PID.TID 0000.0001) // =======================================================
(PID.TID 0000.0001) %MON time_tsnumber                =                   768
(PID.TID 0000.0001) %MON time_secondsf                =   7.6800000000000E+04
(PID.TID 0000.0001) %MON dynstat_eta_max              =   5.7971589211649E+00
(PID.TID 0000.0001) %MON dynstat_eta_min              =  -1.4193910412945E+01
(PID.TID 0000.0001) %MON dynstat_eta_mean             =  -2.5051985522857E+00
(PID.TID 0000.0001) %MON dynstat_eta_sd               =   4.9503295310919E+00
(PID.TID 0000.0001) %MON dynstat_eta_del2             =   2.0714440431017E-01
(PID.TID 0000.0001) %MON dynstat_uvel_max             =   2.4271076981073E-03
(PID.TID 0000.0001) %MON dynstat_uvel_min             =  -1.0838757420643E-02
(PID.TID 0000.0001) %MON dynstat_uvel_mean            =  -1.1739241805142E-07
(PID.TID 0000.0001) %MON dynstat_uvel_sd              =   3.3013775728334E-04
(PID.TID 0000.0001) %MON dynstat_uvel_del2            =   5.4728937172503E-07
(PID.TID 0000.0001) %MON dynstat_vvel_max             =   8.8643933277561E-03
(PID.TID 0000.0001) %MON dynstat_vvel_min             =  -4.3383424806915E-03
(PID.TID 0000.0001) %MON dynstat_vvel_mean            =   1.4979730084187E-05
(PID.TID 0000.0001) %MON dynstat_vvel_sd              =   2.2901421009432E-04
(PID.TID 0000.0001) %MON dynstat_vvel_del2            =   4.9212922896943E-07
(PID.TID 0000.0001) %MON dynstat_wvel_max             =   3.9668625247309E-04
(PID.TID 0000.0001) %MON dynstat_wvel_min             =  -4.0614733774790E-04
(PID.TID 0000.0001) %MON dynstat_wvel_mean            =   6.6574285059695E-09
(PID.TID 0000.0001) %MON dynstat_wvel_sd              =   1.6751003288448E-05
(PID.TID 0000.0001) %MON dynstat_wvel_del2            =   6.7138574032117E-08
(PID.TID 0000.0001) %MON dynstat_theta_max            =   1.2000000000000E+00
(PID.TID 0000.0001) %MON dynstat_theta_min            =  -1.0000000000000E+00
(PID.TID 0000.0001) %MON dynstat_theta_mean           =   5.6891896213753E-01
(PID.TID 0000.0001) %MON dynstat_theta_sd             =   8.6848515183755E-01
(PID.TID 0000.0001) %MON dynstat_theta_del2           =   1.5274620463186E-06
(PID.TID 0000.0001) %MON dynstat_salt_max             =   3.4700000000000E+01
(PID.TID 0000.0001) %MON dynstat_salt_min             =   3.4000000000000E+01
(PID.TID 0000.0001) %MON dynstat_salt_mean            =   3.4499181753538E+01
(PID.TID 0000.0001) %MON dynstat_salt_sd              =   2.7632976068824E-01
(PID.TID 0000.0001) %MON dynstat_salt_del2            =   5.9314614775419E-07
(PID.TID 0000.0001) %MON advcfl_uvel_max              =   1.0838757420643E-03
(PID.TID 0000.0001) %MON advcfl_vvel_max              =   8.8643933277561E-04
(PID.TID 0000.0001) %MON advcfl_wvel_max              =   2.0307366887395E-03
(PID.TID 0000.0001) %MON advcfl_W_hf_max              =   2.0307366887395E-03
(PID.TID 0000.0001) %MON pe_b_mean                    =  -8.3027113119726E-01
(PID.TID 0000.0001) %MON ke_max                       =   3.3944311346261E-05
(PID.TID 0000.0001) %MON ke_mean                      =   7.9748631058629E-08
(PID.TID 0000.0001) %MON ke_vol                       =   4.2724991946544E+12
(PID.TID 0000.0001) // =======================================================
(PID.TID 0000.0001) // End MONITOR dynamic field statistics
(PID.TID 0000.0001) // =======================================================
(PID.TID 0000.0001) // =======================================================
(PID.TID 0000.0001) // Begin OBCS MONITOR field statistics
(PID.TID 0000.0001) // =======================================================
(PID.TID 0000.0001) %MON obc_N_vVel_max               =   1.4740032625910E-05
(PID.TID 0000.0001) %MON obc_N_vVel_min               =   1.4740032625909E-05
(PID.TID 0000.0001) %MON obc_N_vVel_mean              =   1.4740032625909E-05
(PID.TID 0000.0001) %MON obc_N_vVel_sd                =   4.3051150507293E-12
(PID.TID 0000.0001) %MON obc_N_vVel_Int               =   9.7284215331002E+02
(PID.TID 0000.0001) // =======================================================
(PID.TID 0000.0001) // End OBCS MONITOR field statistics
(PID.TID 0000.0001) // =======================================================
 cg2d: Sum(rhs),rhsMax =   4.51068983471659E+00  2.99912872781131E+02
(PID.TID 0000.0001)      cg2d_init_res =   5.98712558974043E-06
(PID.TID 0000.0001)      cg2d_iters(min,last) =      -1      78
(PID.TID 0000.0001)      cg2d_last_res =   8.91064768051669E-12
(PID.TID 0000.0001) // =======================================================
(PID.TID 0000.0001) // Begin MONITOR dynamic field statistics
(PID.TID 0000.0001) // =======================================================
(PID.TID 0000.0001) %MON time_tsnumber                =                   769
(PID.TID 0000.0001) %MON time_secondsf                =   7.6900000000000E+04
(PID.TID 0000.0001) %MON dynstat_eta_max              =   5.7971496193489E+00
(PID.TID 0000.0001) %MON dynstat_eta_min              =  -1.4193934930280E+01
(PID.TID 0000.0001) %MON dynstat_eta_mean             =  -2.5052110121380E+00
(PID.TID 0000.0001) %MON dynstat_eta_sd               =   4.9503337498981E+00
(PID.TID 0000.0001) %MON dynstat_eta_del2             =   2.0714441973496E-01
(PID.TID 0000.0001) %MON dynstat_uvel_max             =   2.4341097135476E-03
(PID.TID 0000.0001) %MON dynstat_uvel_min             =  -1.0870325392087E-02
(PID.TID 0000.0001) %MON dynstat_uvel_mean            =  -1.1738963558714E-07
(PID.TID 0000.0001) %MON dynstat_uvel_sd              =   3.3093629731205E-04
(PID.TID 0000.0001) %MON dynstat_uvel_del2            =   5.4834729631511E-07
(PID.TID 0000.0001) %MON dynstat_vvel_max             =   8.8892712650099E-03
(PID.TID 0000.0001) %MON dynstat_vvel_min             =  -4.3477721483960E-03
(PID.TID 0000.0001) %MON dynstat_vvel_mean            =   1.4979581514101E-05
(PID.TID 0000.0001) %MON dynstat_vvel_sd              =   2.2950054085078E-04
(PID.TID 0000.0001) %MON dynstat_vvel_del2            =   4.9331317445336E-07
(PID.TID 0000.0001) %MON dynstat_wvel_max             =   3.9798760642932E-04
(PID.TID 0000.0001) %MON dynstat_wvel_min             =  -4.0732824354946E-04
(PID.TID 0000.0001) %MON dynstat_wvel_mean            =   6.6569390524553E-09
(PID.TID 0000.0001) %MON dynstat_wvel_sd              =   1.6855821462831E-05
(PID.TID 0000.0001) %MON dynstat_wvel_del2            =   6.8168890633644E-08
(PID.TID 0000.0001) %MON dynstat_theta_max            =   1.2000000000000E+00
(PID.TID 0000.0001) %MON dynstat_theta_min            =  -1.0000000000000E+00
(PID.TID 0000.0001) %MON dynstat_theta_mean           =   5.6891849491346E-01
(PID.TID 0000.0001) %MON dynstat_theta_sd             =   8.6848489454698E-01
(PID.TID 0000.0001) %MON dynstat_theta_del2           =   1.5293229958372E-06
(PID.TID 0000.0001) %MON dynstat_salt_max             =   3.4700000000000E+01
(PID.TID 0000.0001) %MON dynstat_salt_min             =   3.4000000000000E+01
(PID.TID 0000.0001) %MON dynstat_salt_mean            =   3.4499181566811E+01
(PID.TID 0000.0001) %MON dynstat_salt_sd              =   2.7632966301543E-01
(PID.TID 0000.0001) %MON dynstat_salt_del2            =   5.9403025297546E-07
(PID.TID 0000.0001) %MON advcfl_uvel_max              =   1.0870325392087E-03
(PID.TID 0000.0001) %MON advcfl_vvel_max              =   8.8892712650099E-04
(PID.TID 0000.0001) %MON advcfl_wvel_max              =   2.0366412177473E-03
(PID.TID 0000.0001) %MON advcfl_W_hf_max              =   2.0366412177473E-03
(PID.TID 0000.0001) %MON pe_b_mean                    =  -8.3027461055998E-01
(PID.TID 0000.0001) %MON ke_max                       =   3.4156782780780E-05
(PID.TID 0000.0001) %MON ke_mean                      =   8.0118831808745E-08
(PID.TID 0000.0001) %MON ke_vol                       =   4.2724991205994E+12
(PID.TID 0000.0001) // =======================================================
(PID.TID 0000.0001) // End MONITOR dynamic field statistics
(PID.TID 0000.0001) // =======================================================
(PID.TID 0000.0001) // =======================================================
(PID.TID 0000.0001) // Begin OBCS MONITOR field statistics
(PID.TID 0000.0001) // =======================================================
(PID.TID 0000.0001) %MON obc_N_vVel_max               =   1.4739910423705E-05
(PID.TID 0000.0001) %MON obc_N_vVel_min               =   1.4739910423705E-05
(PID.TID 0000.0001) %MON obc_N_vVel_mean              =   1.4739910423705E-05
(PID.TID 0000.0001) %MON obc_N_vVel_sd                =   2.0652239669044E-12
(PID.TID 0000.0001) %MON obc_N_vVel_Int               =   9.7283408796455E+02
(PID.TID 0000.0001) // =======================================================
(PID.TID 0000.0001) // End OBCS MONITOR field statistics
(PID.TID 0000.0001) // =======================================================
 cg2d: Sum(rhs),rhsMax =   4.51071111856905E+00  2.99912948381776E+02
(PID.TID 0000.0001)      cg2d_init_res =   5.99677650413096E-06
(PID.TID 0000.0001)      cg2d_iters(min,last) =      -1      78
(PID.TID 0000.0001)      cg2d_last_res =   8.91300046014495E-12
(PID.TID 0000.0001) // =======================================================
(PID.TID 0000.0001) // Begin MONITOR dynamic field statistics
(PID.TID 0000.0001) // =======================================================
(PID.TID 0000.0001) %MON time_tsnumber                =                   770
(PID.TID 0000.0001) %MON time_secondsf                =   7.7000000000000E+04
(PID.TID 0000.0001) %MON dynstat_eta_max              =   5.7971403404444E+00
(PID.TID 0000.0001) %MON dynstat_eta_min              =  -1.4193959432245E+01
(PID.TID 0000.0001) %MON dynstat_eta_mean             =  -2.5052234645713E+00
(PID.TID 0000.0001) %MON dynstat_eta_sd               =   4.9503379667728E+00
(PID.TID 0000.0001) %MON dynstat_eta_del2             =   2.0714443520053E-01
(PID.TID 0000.0001) %MON dynstat_uvel_max             =   2.4411283550236E-03
(PID.TID 0000.0001) %MON dynstat_uvel_min             =  -1.0901968408490E-02
(PID.TID 0000.0001) %MON dynstat_uvel_mean            =  -1.1738707359189E-07
(PID.TID 0000.0001) %MON dynstat_uvel_sd              =   3.3173811644251E-04
(PID.TID 0000.0001) %MON dynstat_uvel_del2            =   5.4940875307983E-07
(PID.TID 0000.0001) %MON dynstat_vvel_max             =   8.9142001295022E-03
(PID.TID 0000.0001) %MON dynstat_vvel_min             =  -4.3572104920306E-03
(PID.TID 0000.0001) %MON dynstat_vvel_mean            =   1.4979358027163E-05
(PID.TID 0000.0001) %MON dynstat_vvel_sd              =   2.2997861229206E-04
(PID.TID 0000.0001) %MON dynstat_vvel_del2            =   4.9433805675956E-07
(PID.TID 0000.0001) %MON dynstat_wvel_max             =   3.9929214801570E-04
(PID.TID 0000.0001) %MON dynstat_wvel_min             =  -4.0851231517366E-04
(PID.TID 0000.0001) %MON dynstat_wvel_mean            =   6.6563780797922E-09
(PID.TID 0000.0001) %MON dynstat_wvel_sd              =   1.6917137813804E-05
(PID.TID 0000.0001) %MON dynstat_wvel_del2            =   6.8813907394527E-08
(PID.TID 0000.0001) %MON dynstat_theta_max            =   1.2000000000000E+00
(PID.TID 0000.0001) %MON dynstat_theta_min            =  -1.0000000000000E+00
(PID.TID 0000.0001) %MON dynstat_theta_mean           =   5.6891802695004E-01
(PID.TID 0000.0001) %MON dynstat_theta_sd             =   8.6848463669421E-01
(PID.TID 0000.0001) %MON dynstat_theta_del2           =   1.5313445262633E-06
(PID.TID 0000.0001) %MON dynstat_salt_max             =   3.4700000000000E+01
(PID.TID 0000.0001) %MON dynstat_salt_min             =   3.4000000000000E+01
(PID.TID 0000.0001) %MON dynstat_salt_mean            =   3.4499181379778E+01
(PID.TID 0000.0001) %MON dynstat_salt_sd              =   2.7632956512701E-01
(PID.TID 0000.0001) %MON dynstat_salt_del2            =   5.9495723684021E-07
(PID.TID 0000.0001) %MON advcfl_uvel_max              =   1.0901968408490E-03
(PID.TID 0000.0001) %MON advcfl_vvel_max              =   8.9142001295022E-04
(PID.TID 0000.0001) %MON advcfl_wvel_max              =   2.0425615758683E-03
(PID.TID 0000.0001) %MON advcfl_W_hf_max              =   2.0425615758683E-03
(PID.TID 0000.0001) %MON pe_b_mean                    =  -8.3027808735630E-01
(PID.TID 0000.0001) %MON ke_max                       =   3.4370505659915E-05
(PID.TID 0000.0001) %MON ke_mean                      =   8.0489059888123E-08
(PID.TID 0000.0001) %MON ke_vol                       =   4.2724990465879E+12
(PID.TID 0000.0001) // =======================================================
(PID.TID 0000.0001) // End MONITOR dynamic field statistics
(PID.TID 0000.0001) // =======================================================
(PID.TID 0000.0001) // =======================================================
(PID.TID 0000.0001) // Begin OBCS MONITOR field statistics
(PID.TID 0000.0001) // =======================================================
(PID.TID 0000.0001) %MON obc_N_vVel_max               =   1.4739723205943E-05
(PID.TID 0000.0001) %MON obc_N_vVel_min               =   1.4739723205943E-05
(PID.TID 0000.0001) %MON obc_N_vVel_mean              =   1.4739723205943E-05
(PID.TID 0000.0001) %MON obc_N_vVel_sd                =   1.2962293852742E-12
(PID.TID 0000.0001) %MON obc_N_vVel_Int               =   9.7282173159225E+02
(PID.TID 0000.0001) // =======================================================
(PID.TID 0000.0001) // End OBCS MONITOR field statistics
(PID.TID 0000.0001) // =======================================================
 cg2d: Sum(rhs),rhsMax =   4.51073238895886E+00  2.99913023976229E+02
(PID.TID 0000.0001)      cg2d_init_res =   6.00271025177001E-06
(PID.TID 0000.0001)      cg2d_iters(min,last) =      -1      78
(PID.TID 0000.0001)      cg2d_last_res =   8.91399926567153E-12
(PID.TID 0000.0001) // =======================================================
(PID.TID 0000.0001) // Begin MONITOR dynamic field statistics
(PID.TID 0000.0001) // =======================================================
(PID.TID 0000.0001) %MON time_tsnumber                =                   771
(PID.TID 0000.0001) %MON time_secondsf                =   7.7100000000000E+04
(PID.TID 0000.0001) %MON dynstat_eta_max              =   5.7971310846379E+00
(PID.TID 0000.0001) %MON dynstat_eta_min              =  -1.4193983918626E+01
(PID.TID 0000.0001) %MON dynstat_eta_mean             =  -2.5052359094818E+00
(PID.TID 0000.0001) %MON dynstat_eta_sd               =   4.9503421816856E+00
(PID.TID 0000.0001) %MON dynstat_eta_del2             =   2.0714445070671E-01
(PID.TID 0000.0001) %MON dynstat_uvel_max             =   2.4481636540798E-03
(PID.TID 0000.0001) %MON dynstat_uvel_min             =  -1.0933686509322E-02
(PID.TID 0000.0001) %MON dynstat_uvel_mean            =  -1.1738484592594E-07
(PID.TID 0000.0001) %MON dynstat_uvel_sd              =   3.3254320481196E-04
(PID.TID 0000.0001) %MON dynstat_uvel_del2            =   5.5047365929637E-07
(PID.TID 0000.0001) %MON dynstat_vvel_max             =   8.9391799738223E-03
(PID.TID 0000.0001) %MON dynstat_vvel_min             =  -4.3666575405767E-03
(PID.TID 0000.0001) %MON dynstat_vvel_mean            =   1.4979065543509E-05
(PID.TID 0000.0001) %MON dynstat_vvel_sd              =   2.3044706544825E-04
(PID.TID 0000.0001) %MON dynstat_vvel_del2            =   4.9518523879174E-07
(PID.TID 0000.0001) %MON dynstat_wvel_max             =   4.0059988432341E-04
(PID.TID 0000.0001) %MON dynstat_wvel_min             =  -4.0969956059407E-04
(PID.TID 0000.0001) %MON dynstat_wvel_mean            =   6.6557675515413E-09
(PID.TID 0000.0001) %MON dynstat_wvel_sd              =   1.6929795915563E-05
(PID.TID 0000.0001) %MON dynstat_wvel_del2            =   6.9028135724756E-08
(PID.TID 0000.0001) %MON dynstat_theta_max            =   1.2000000000000E+00
(PID.TID 0000.0001) %MON dynstat_theta_min            =  -1.0000000000000E+00
(PID.TID 0000.0001) %MON dynstat_theta_mean           =   5.6891755825265E-01
(PID.TID 0000.0001) %MON dynstat_theta_sd             =   8.6848437828216E-01
(PID.TID 0000.0001) %MON dynstat_theta_del2           =   1.5335489080250E-06
(PID.TID 0000.0001) %MON dynstat_salt_max             =   3.4700000000000E+01
(PID.TID 0000.0001) %MON dynstat_salt_min             =   3.4000000000000E+01
(PID.TID 0000.0001) %MON dynstat_salt_mean            =   3.4499181192440E+01
(PID.TID 0000.0001) %MON dynstat_salt_sd              =   2.7632946702392E-01
(PID.TID 0000.0001) %MON dynstat_salt_del2            =   5.9593286606091E-07
(PID.TID 0000.0001) %MON advcfl_uvel_max              =   1.0933686509322E-03
(PID.TID 0000.0001) %MON advcfl_vvel_max              =   8.9391799738223E-04
(PID.TID 0000.0001) %MON advcfl_wvel_max              =   2.0484978029704E-03
(PID.TID 0000.0001) %MON advcfl_W_hf_max              =   2.0484978029704E-03
(PID.TID 0000.0001) %MON pe_b_mean                    =  -8.3028156155772E-01
(PID.TID 0000.0001) %MON ke_max                       =   3.4585486338841E-05
(PID.TID 0000.0001) %MON ke_mean                      =   8.0858994913163E-08
(PID.TID 0000.0001) %MON ke_vol                       =   4.2724989726204E+12
(PID.TID 0000.0001) // =======================================================
(PID.TID 0000.0001) // End MONITOR dynamic field statistics
(PID.TID 0000.0001) // =======================================================
(PID.TID 0000.0001) // =======================================================
(PID.TID 0000.0001) // Begin OBCS MONITOR field statistics
(PID.TID 0000.0001) // =======================================================
(PID.TID 0000.0001) %MON obc_N_vVel_max               =   1.4739474817996E-05
(PID.TID 0000.0001) %MON obc_N_vVel_min               =   1.4739474817995E-05
(PID.TID 0000.0001) %MON obc_N_vVel_mean              =   1.4739474817995E-05
(PID.TID 0000.0001) %MON obc_N_vVel_sd                =   2.6710359007827E-12
(PID.TID 0000.0001) %MON obc_N_vVel_Int               =   9.7280533798770E+02
(PID.TID 0000.0001) // =======================================================
(PID.TID 0000.0001) // End OBCS MONITOR field statistics
(PID.TID 0000.0001) // =======================================================
 cg2d: Sum(rhs),rhsMax =   4.51075364570861E+00  2.99913099564541E+02
(PID.TID 0000.0001)      cg2d_init_res =   6.00456583330868E-06
(PID.TID 0000.0001)      cg2d_iters(min,last) =      -1      78
(PID.TID 0000.0001)      cg2d_last_res =   8.91426904502094E-12
(PID.TID 0000.0001) // =======================================================
(PID.TID 0000.0001) // Begin MONITOR dynamic field statistics
(PID.TID 0000.0001) // =======================================================
(PID.TID 0000.0001) %MON time_tsnumber                =                   772
(PID.TID 0000.0001) %MON time_secondsf                =   7.7200000000000E+04
(PID.TID 0000.0001) %MON dynstat_eta_max              =   5.7971218521054E+00
(PID.TID 0000.0001) %MON dynstat_eta_min              =  -1.4194008389224E+01
(PID.TID 0000.0001) %MON dynstat_eta_mean             =  -2.5052483467713E+00
(PID.TID 0000.0001) %MON dynstat_eta_sd               =   4.9503463946087E+00
(PID.TID 0000.0001) %MON dynstat_eta_del2             =   2.0714446625349E-01
(PID.TID 0000.0001) %MON dynstat_uvel_max             =   2.4552156420370E-03
(PID.TID 0000.0001) %MON dynstat_uvel_min             =  -1.0965479733418E-02
(PID.TID 0000.0001) %MON dynstat_uvel_mean            =  -1.1738305784977E-07
(PID.TID 0000.0001) %MON dynstat_uvel_sd              =   3.3335155016922E-04
(PID.TID 0000.0001) %MON dynstat_uvel_del2            =   5.5154190588205E-07
(PID.TID 0000.0001) %MON dynstat_vvel_max             =   8.9642108505288E-03
(PID.TID 0000.0001) %MON dynstat_vvel_min             =  -4.3761133229321E-03
(PID.TID 0000.0001) %MON dynstat_vvel_mean            =   1.4978711604815E-05
(PID.TID 0000.0001) %MON dynstat_vvel_sd              =   2.3090559255608E-04
(PID.TID 0000.0001) %MON dynstat_vvel_del2            =   4.9585218436481E-07
(PID.TID 0000.0001) %MON dynstat_wvel_max             =   4.0191082239904E-04
(PID.TID 0000.0001) %MON dynstat_wvel_min             =  -4.1088998774165E-04
(PID.TID 0000.0001) %MON dynstat_wvel_mean            =   6.6551301723713E-09
(PID.TID 0000.0001) %MON dynstat_wvel_sd              =   1.6892705977868E-05
(PID.TID 0000.0001) %MON dynstat_wvel_del2            =   6.8797949312493E-08
(PID.TID 0000.0001) %MON dynstat_theta_max            =   1.2000000000000E+00
(PID.TID 0000.0001) %MON dynstat_theta_min            =  -1.0000000000000E+00
(PID.TID 0000.0001) %MON dynstat_theta_mean           =   5.6891708882370E-01
(PID.TID 0000.0001) %MON dynstat_theta_sd             =   8.6848411931469E-01
(PID.TID 0000.0001) %MON dynstat_theta_del2           =   1.5359415085909E-06
(PID.TID 0000.0001) %MON dynstat_salt_max             =   3.4700000000000E+01
(PID.TID 0000.0001) %MON dynstat_salt_min             =   3.4000000000000E+01
(PID.TID 0000.0001) %MON dynstat_salt_mean            =   3.4499181004797E+01
(PID.TID 0000.0001) %MON dynstat_salt_sd              =   2.7632936870718E-01
(PID.TID 0000.0001) %MON dynstat_salt_del2            =   5.9695851227097E-07
(PID.TID 0000.0001) %MON advcfl_uvel_max              =   1.0965479733418E-03
(PID.TID 0000.0001) %MON advcfl_vvel_max              =   8.9642108505288E-04
(PID.TID 0000.0001) %MON advcfl_wvel_max              =   2.0544499387083E-03
(PID.TID 0000.0001) %MON advcfl_W_hf_max              =   2.0544499387083E-03
(PID.TID 0000.0001) %MON pe_b_mean                    =  -8.3028503313762E-01
(PID.TID 0000.0001) %MON ke_max                       =   3.4801731193088E-05
(PID.TID 0000.0001) %MON ke_mean                      =   8.1228556158753E-08
(PID.TID 0000.0001) %MON ke_vol                       =   4.2724988986977E+12
(PID.TID 0000.0001) // =======================================================
(PID.TID 0000.0001) // End MONITOR dynamic field statistics
(PID.TID 0000.0001) // =======================================================
(PID.TID 0000.0001) // =======================================================
(PID.TID 0000.0001) // Begin OBCS MONITOR field statistics
(PID.TID 0000.0001) // =======================================================
(PID.TID 0000.0001) %MON obc_N_vVel_max               =   1.4739170550796E-05
(PID.TID 0000.0001) %MON obc_N_vVel_min               =   1.4739170550796E-05
(PID.TID 0000.0001) %MON obc_N_vVel_mean              =   1.4739170550796E-05
(PID.TID 0000.0001) %MON obc_N_vVel_sd                =  -7.8323664251115E-24
(PID.TID 0000.0001) %MON obc_N_vVel_Int               =   9.7278525635256E+02
(PID.TID 0000.0001) // =======================================================
(PID.TID 0000.0001) // End OBCS MONITOR field statistics
(PID.TID 0000.0001) // =======================================================
 cg2d: Sum(rhs),rhsMax =   4.51077488865625E+00  2.99913175146704E+02
(PID.TID 0000.0001)      cg2d_init_res =   6.00234467523732E-06
(PID.TID 0000.0001)      cg2d_iters(min,last) =      -1      78
(PID.TID 0000.0001)      cg2d_last_res =   8.91495253602055E-12
(PID.TID 0000.0001) // =======================================================
(PID.TID 0000.0001) // Begin MONITOR dynamic field statistics
(PID.TID 0000.0001) // =======================================================
(PID.TID 0000.0001) %MON time_tsnumber                =                   773
(PID.TID 0000.0001) %MON time_secondsf                =   7.7300000000000E+04
(PID.TID 0000.0001) %MON dynstat_eta_max              =   5.7971126429948E+00
(PID.TID 0000.0001) %MON dynstat_eta_min              =  -1.4194032843864E+01
(PID.TID 0000.0001) %MON dynstat_eta_mean             =  -2.5052607763498E+00
(PID.TID 0000.0001) %MON dynstat_eta_sd               =   4.9503506055249E+00
(PID.TID 0000.0001) %MON dynstat_eta_del2             =   2.0714448184126E-01
(PID.TID 0000.0001) %MON dynstat_uvel_max             =   2.4622843501447E-03
(PID.TID 0000.0001) %MON dynstat_uvel_min             =  -1.0997348118615E-02
(PID.TID 0000.0001) %MON dynstat_uvel_mean            =  -1.1738180227777E-07
(PID.TID 0000.0001) %MON dynstat_uvel_sd              =   3.3416313823030E-04
(PID.TID 0000.0001) %MON dynstat_uvel_del2            =   5.5261336140867E-07
(PID.TID 0000.0001) %MON dynstat_vvel_max             =   8.9892928120081E-03
(PID.TID 0000.0001) %MON dynstat_vvel_min             =  -4.3855778676951E-03
(PID.TID 0000.0001) %MON dynstat_vvel_mean            =   1.4978305070632E-05
(PID.TID 0000.0001) %MON dynstat_vvel_sd              =   2.3135493947447E-04
(PID.TID 0000.0001) %MON dynstat_vvel_del2            =   4.9635237859815E-07
(PID.TID 0000.0001) %MON dynstat_wvel_max             =   4.0322496931405E-04
(PID.TID 0000.0001) %MON dynstat_wvel_min             =  -4.1208360461465E-04
(PID.TID 0000.0001) %MON dynstat_wvel_mean            =   6.6544882714296E-09
(PID.TID 0000.0001) %MON dynstat_wvel_sd              =   1.6808830494704E-05
(PID.TID 0000.0001) %MON dynstat_wvel_del2            =   6.8141297567964E-08
(PID.TID 0000.0001) %MON dynstat_theta_max            =   1.2000000000000E+00
(PID.TID 0000.0001) %MON dynstat_theta_min            =  -1.0000000000000E+00
(PID.TID 0000.0001) %MON dynstat_theta_mean           =   5.6891661866261E-01
(PID.TID 0000.0001) %MON dynstat_theta_sd             =   8.6848385979395E-01
(PID.TID 0000.0001) %MON dynstat_theta_del2           =   1.5385110417598E-06
(PID.TID 0000.0001) %MON dynstat_salt_max             =   3.4700000000000E+01
(PID.TID 0000.0001) %MON dynstat_salt_min             =   3.4000000000000E+01
(PID.TID 0000.0001) %MON dynstat_salt_mean            =   3.4499180816849E+01
(PID.TID 0000.0001) %MON dynstat_salt_sd              =   2.7632927017738E-01
(PID.TID 0000.0001) %MON dynstat_salt_del2            =   5.9803122008131E-07
(PID.TID 0000.0001) %MON advcfl_uvel_max              =   1.0997348118615E-03
(PID.TID 0000.0001) %MON advcfl_vvel_max              =   8.9892928120081E-04
(PID.TID 0000.0001) %MON advcfl_wvel_max              =   2.0604180230733E-03
(PID.TID 0000.0001) %MON advcfl_W_hf_max              =   2.0604180230733E-03
(PID.TID 0000.0001) %MON pe_b_mean                    =  -8.3028850207228E-01
(PID.TID 0000.0001) %MON ke_max                       =   3.5019246618470E-05
(PID.TID 0000.0001) %MON ke_mean                      =   8.1597905709629E-08
(PID.TID 0000.0001) %MON ke_vol                       =   4.2724988248202E+12
(PID.TID 0000.0001) // =======================================================
(PID.TID 0000.0001) // End MONITOR dynamic field statistics
(PID.TID 0000.0001) // =======================================================
(PID.TID 0000.0001) // =======================================================
(PID.TID 0000.0001) // Begin OBCS MONITOR field statistics
(PID.TID 0000.0001) // =======================================================
(PID.TID 0000.0001) %MON obc_N_vVel_max               =   1.4738816932594E-05
(PID.TID 0000.0001) %MON obc_N_vVel_min               =   1.4738816932594E-05
(PID.TID 0000.0001) %MON obc_N_vVel_mean              =   1.4738816932594E-05
(PID.TID 0000.0001) %MON obc_N_vVel_sd                =  -8.6853964318068E-24
(PID.TID 0000.0001) %MON obc_N_vVel_Int               =   9.7276191755123E+02
(PID.TID 0000.0001) // =======================================================
(PID.TID 0000.0001) // End OBCS MONITOR field statistics
(PID.TID 0000.0001) // =======================================================
 cg2d: Sum(rhs),rhsMax =   4.51079611765392E+00  2.99913250722654E+02
(PID.TID 0000.0001)      cg2d_init_res =   5.99638879857970E-06
(PID.TID 0000.0001)      cg2d_iters(min,last) =      -1      78
(PID.TID 0000.0001)      cg2d_last_res =   8.91700907280265E-12
(PID.TID 0000.0001) // =======================================================
(PID.TID 0000.0001) // Begin MONITOR dynamic field statistics
(PID.TID 0000.0001) // =======================================================
(PID.TID 0000.0001) %MON time_tsnumber                =                   774
(PID.TID 0000.0001) %MON time_secondsf                =   7.7400000000000E+04
(PID.TID 0000.0001) %MON dynstat_eta_max              =   5.7971034574402E+00
(PID.TID 0000.0001) %MON dynstat_eta_min              =  -1.4194057282390E+01
(PID.TID 0000.0001) %MON dynstat_eta_mean             =  -2.5052731981347E+00
(PID.TID 0000.0001) %MON dynstat_eta_sd               =   4.9503548144149E+00
(PID.TID 0000.0001) %MON dynstat_eta_del2             =   2.0714449747013E-01
(PID.TID 0000.0001) %MON dynstat_uvel_max             =   2.4693698095142E-03
(PID.TID 0000.0001) %MON dynstat_uvel_min             =  -1.1029291701902E-02
(PID.TID 0000.0001) %MON dynstat_uvel_mean            =  -1.1738114168886E-07
(PID.TID 0000.0001) %MON dynstat_uvel_sd              =   3.3497795315727E-04
(PID.TID 0000.0001) %MON dynstat_uvel_del2            =   5.5368787776253E-07
(PID.TID 0000.0001) %MON dynstat_vvel_max             =   9.0144259105567E-03
(PID.TID 0000.0001) %MON dynstat_vvel_min             =  -4.3950512035158E-03
(PID.TID 0000.0001) %MON dynstat_vvel_mean            =   1.4977855765858E-05
(PID.TID 0000.0001) %MON dynstat_vvel_sd              =   2.3179681568210E-04
(PID.TID 0000.0001) %MON dynstat_vvel_del2            =   4.9671389889350E-07
(PID.TID 0000.0001) %MON dynstat_wvel_max             =   4.0454233210127E-04
(PID.TID 0000.0001) %MON dynstat_wvel_min             =  -4.1328041912220E-04
(PID.TID 0000.0001) %MON dynstat_wvel_mean            =   6.6538633797908E-09
(PID.TID 0000.0001) %MON dynstat_wvel_sd              =   1.6684941817636E-05
(PID.TID 0000.0001) %MON dynstat_wvel_del2            =   6.7106801331647E-08
(PID.TID 0000.0001) %MON dynstat_theta_max            =   1.2000000000000E+00
(PID.TID 0000.0001) %MON dynstat_theta_min            =  -1.0000000000000E+00
(PID.TID 0000.0001) %MON dynstat_theta_mean           =   5.6891614776556E-01
(PID.TID 0000.0001) %MON dynstat_theta_sd             =   8.6848359972134E-01
(PID.TID 0000.0001) %MON dynstat_theta_del2           =   1.5412314175429E-06
(PID.TID 0000.0001) %MON dynstat_salt_max             =   3.4700000000000E+01
(PID.TID 0000.0001) %MON dynstat_salt_min             =   3.4000000000000E+01
(PID.TID 0000.0001) %MON dynstat_salt_mean            =   3.4499180628595E+01
(PID.TID 0000.0001) %MON dynstat_salt_sd              =   2.7632917143473E-01
(PID.TID 0000.0001) %MON dynstat_salt_del2            =   5.9914416751571E-07
(PID.TID 0000.0001) %MON advcfl_uvel_max              =   1.1029291701902E-03
(PID.TID 0000.0001) %MON advcfl_vvel_max              =   9.0144259105567E-04
(PID.TID 0000.0001) %MON advcfl_wvel_max              =   2.0664020956110E-03
(PID.TID 0000.0001) %MON advcfl_W_hf_max              =   2.0664020956110E-03
(PID.TID 0000.0001) %MON pe_b_mean                    =  -8.3029196833974E-01
(PID.TID 0000.0001) %MON ke_max                       =   3.5238039030906E-05
(PID.TID 0000.0001) %MON ke_mean                      =   8.1967430091664E-08
(PID.TID 0000.0001) %MON ke_vol                       =   4.2724987509885E+12
(PID.TID 0000.0001) // =======================================================
(PID.TID 0000.0001) // End MONITOR dynamic field statistics
(PID.TID 0000.0001) // =======================================================
(PID.TID 0000.0001) // =======================================================
(PID.TID 0000.0001) // Begin OBCS MONITOR field statistics
(PID.TID 0000.0001) // =======================================================
(PID.TID 0000.0001) %MON obc_N_vVel_max               =   1.4738421441896E-05
(PID.TID 0000.0001) %MON obc_N_vVel_min               =   1.4738421441896E-05
(PID.TID 0000.0001) %MON obc_N_vVel_mean              =   1.4738421441896E-05
(PID.TID 0000.0001) %MON obc_N_vVel_sd                =  -8.4269024903840E-24
(PID.TID 0000.0001) %MON obc_N_vVel_Int               =   9.7273581516515E+02
(PID.TID 0000.0001) // =======================================================
(PID.TID 0000.0001) // End OBCS MONITOR field statistics
(PID.TID 0000.0001) // =======================================================
 cg2d: Sum(rhs),rhsMax =   4.51081733258023E+00  2.99913326292223E+02
(PID.TID 0000.0001)      cg2d_init_res =   5.98738434571501E-06
(PID.TID 0000.0001)      cg2d_iters(min,last) =      -1      78
(PID.TID 0000.0001)      cg2d_last_res =   8.92088603970845E-12
(PID.TID 0000.0001) // =======================================================
(PID.TID 0000.0001) // Begin MONITOR dynamic field statistics
(PID.TID 0000.0001) // =======================================================
(PID.TID 0000.0001) %MON time_tsnumber                =                   775
(PID.TID 0000.0001) %MON time_secondsf                =   7.7500000000000E+04
(PID.TID 0000.0001) %MON dynstat_eta_max              =   5.7970942955483E+00
(PID.TID 0000.0001) %MON dynstat_eta_min              =  -1.4194081704670E+01
(PID.TID 0000.0001) %MON dynstat_eta_mean             =  -2.5052856120569E+00
(PID.TID 0000.0001) %MON dynstat_eta_sd               =   4.9503590212648E+00
(PID.TID 0000.0001) %MON dynstat_eta_del2             =   2.0714451314018E-01
(PID.TID 0000.0001) %MON dynstat_uvel_max             =   2.4764720512387E-03
(PID.TID 0000.0001) %MON dynstat_uvel_min             =  -1.1061310519182E-02
(PID.TID 0000.0001) %MON dynstat_uvel_mean            =  -1.1738111261870E-07
(PID.TID 0000.0001) %MON dynstat_uvel_sd              =   3.3579597810207E-04
(PID.TID 0000.0001) %MON dynstat_uvel_del2            =   5.5476529733416E-07
(PID.TID 0000.0001) %MON dynstat_vvel_max             =   9.0396101955919E-03
(PID.TID 0000.0001) %MON dynstat_vvel_min             =  -4.4045333589136E-03
(PID.TID 0000.0001) %MON dynstat_vvel_mean            =   1.4977374112045E-05
(PID.TID 0000.0001) %MON dynstat_vvel_sd              =   2.3223372161275E-04
(PID.TID 0000.0001) %MON dynstat_vvel_del2            =   4.9697676484837E-07
(PID.TID 0000.0001) %MON dynstat_wvel_max             =   4.0586291715343E-04
(PID.TID 0000.0001) %MON dynstat_wvel_min             =  -4.1448043917826E-04
(PID.TID 0000.0001) %MON dynstat_wvel_mean            =   6.6532751612804E-09
(PID.TID 0000.0001) %MON dynstat_wvel_sd              =   1.6531149799452E-05
(PID.TID 0000.0001) %MON dynstat_wvel_del2            =   6.5772082058699E-08
(PID.TID 0000.0001) %MON dynstat_theta_max            =   1.2000000000000E+00
(PID.TID 0000.0001) %MON dynstat_theta_min            =  -1.0000000000000E+00
(PID.TID 0000.0001) %MON dynstat_theta_mean           =   5.6891567612635E-01
(PID.TID 0000.0001) %MON dynstat_theta_sd             =   8.6848333910858E-01
(PID.TID 0000.0001) %MON dynstat_theta_del2           =   1.5440647906986E-06
(PID.TID 0000.0001) %MON dynstat_salt_max             =   3.4700000000000E+01
(PID.TID 0000.0001) %MON dynstat_salt_min             =   3.4000000000000E+01
(PID.TID 0000.0001) %MON dynstat_salt_mean            =   3.4499180440032E+01
(PID.TID 0000.0001) %MON dynstat_salt_sd              =   2.7632907248299E-01
(PID.TID 0000.0001) %MON dynstat_salt_del2            =   6.0028749542938E-07
(PID.TID 0000.0001) %MON advcfl_uvel_max              =   1.1061310519182E-03
(PID.TID 0000.0001) %MON advcfl_vvel_max              =   9.0396101955919E-04
(PID.TID 0000.0001) %MON advcfl_wvel_max              =   2.0724021958913E-03
(PID.TID 0000.0001) %MON advcfl_W_hf_max              =   2.0724021958913E-03
(PID.TID 0000.0001) %MON pe_b_mean                    =  -8.3029543192220E-01
(PID.TID 0000.0001) %MON ke_max                       =   3.5458114866223E-05
(PID.TID 0000.0001) %MON ke_mean                      =   8.2337702374549E-08
(PID.TID 0000.0001) %MON ke_vol                       =   4.2724986772031E+12
(PID.TID 0000.0001) // =======================================================
(PID.TID 0000.0001) // End MONITOR dynamic field statistics
(PID.TID 0000.0001) // =======================================================
(PID.TID 0000.0001) // =======================================================
(PID.TID 0000.0001) // Begin OBCS MONITOR field statistics
(PID.TID 0000.0001) // =======================================================
(PID.TID 0000.0001) %MON obc_N_vVel_max               =   1.4737992234852E-05
(PID.TID 0000.0001) %MON obc_N_vVel_min               =   1.4737992234851E-05
(PID.TID 0000.0001) %MON obc_N_vVel_mean              =   1.4737992234851E-05
(PID.TID 0000.0001) %MON obc_N_vVel_sd                =   4.0386839073862E-12
(PID.TID 0000.0001) %MON obc_N_vVel_Int               =   9.7270748750019E+02
(PID.TID 0000.0001) // =======================================================
(PID.TID 0000.0001) // End OBCS MONITOR field statistics
(PID.TID 0000.0001) // =======================================================
 cg2d: Sum(rhs),rhsMax =   4.51083853332762E+00  2.99913401855130E+02
(PID.TID 0000.0001)      cg2d_init_res =   5.97626754513705E-06
(PID.TID 0000.0001)      cg2d_iters(min,last) =      -1      78
(PID.TID 0000.0001)      cg2d_last_res =   8.92698918326626E-12
(PID.TID 0000.0001) // =======================================================
(PID.TID 0000.0001) // Begin MONITOR dynamic field statistics
(PID.TID 0000.0001) // =======================================================
(PID.TID 0000.0001) %MON time_tsnumber                =                   776
(PID.TID 0000.0001) %MON time_secondsf                =   7.7600000000000E+04
(PID.TID 0000.0001) %MON dynstat_eta_max              =   5.7970851574091E+00
(PID.TID 0000.0001) %MON dynstat_eta_min              =  -1.4194106110595E+01
(PID.TID 0000.0001) %MON dynstat_eta_mean             =  -2.5052980180546E+00
(PID.TID 0000.0001) %MON dynstat_eta_sd               =   4.9503632260675E+00
(PID.TID 0000.0001) %MON dynstat_eta_del2             =   2.0714452885163E-01
(PID.TID 0000.0001) %MON dynstat_uvel_max             =   2.4835911061984E-03
(PID.TID 0000.0001) %MON dynstat_uvel_min             =  -1.1093404605724E-02
(PID.TID 0000.0001) %MON dynstat_uvel_mean            =  -1.1738172129512E-07
(PID.TID 0000.0001) %MON dynstat_uvel_sd              =   3.3661719583461E-04
(PID.TID 0000.0001) %MON dynstat_uvel_del2            =   5.5584546060928E-07
(PID.TID 0000.0001) %MON dynstat_vvel_max             =   9.0648457165403E-03
(PID.TID 0000.0001) %MON dynstat_vvel_min             =  -4.4140243623412E-03
(PID.TID 0000.0001) %MON dynstat_vvel_mean            =   1.4976870739490E-05
(PID.TID 0000.0001) %MON dynstat_vvel_sd              =   2.3266870997865E-04
(PID.TID 0000.0001) %MON dynstat_vvel_del2            =   4.9718928679631E-07
(PID.TID 0000.0001) %MON dynstat_wvel_max             =   4.0718673097139E-04
(PID.TID 0000.0001) %MON dynstat_wvel_min             =  -4.1568367268101E-04
(PID.TID 0000.0001) %MON dynstat_wvel_mean            =   6.6527410543536E-09
(PID.TID 0000.0001) %MON dynstat_wvel_sd              =   1.6360188731164E-05
(PID.TID 0000.0001) %MON dynstat_wvel_del2            =   6.4240878630154E-08
(PID.TID 0000.0001) %MON dynstat_theta_max            =   1.2000000000000E+00
(PID.TID 0000.0001) %MON dynstat_theta_min            =  -1.0000000000000E+00
(PID.TID 0000.0001) %MON dynstat_theta_mean           =   5.6891520373539E-01
(PID.TID 0000.0001) %MON dynstat_theta_sd             =   8.6848307797373E-01
(PID.TID 0000.0001) %MON dynstat_theta_del2           =   1.5469656196722E-06
(PID.TID 0000.0001) %MON dynstat_salt_max             =   3.4700000000000E+01
(PID.TID 0000.0001) %MON dynstat_salt_min             =   3.4000000000000E+01
(PID.TID 0000.0001) %MON dynstat_salt_mean            =   3.4499180251156E+01
(PID.TID 0000.0001) %MON dynstat_salt_sd              =   2.7632897332785E-01
(PID.TID 0000.0001) %MON dynstat_salt_del2            =   6.0144932051456E-07
(PID.TID 0000.0001) %MON advcfl_uvel_max              =   1.1093404605724E-03
(PID.TID 0000.0001) %MON advcfl_vvel_max              =   9.0648457165403E-04
(PID.TID 0000.0001) %MON advcfl_wvel_max              =   2.0784183634050E-03
(PID.TID 0000.0001) %MON advcfl_W_hf_max              =   2.0784183634050E-03
(PID.TID 0000.0001) %MON pe_b_mean                    =  -8.3029889280384E-01
(PID.TID 0000.0001) %MON ke_max                       =   3.5679480580811E-05
(PID.TID 0000.0001) %MON ke_mean                      =   8.2709428442751E-08
(PID.TID 0000.0001) %MON ke_vol                       =   4.2724986034644E+12
(PID.TID 0000.0001) // =======================================================
(PID.TID 0000.0001) // End MONITOR dynamic field statistics
(PID.TID 0000.0001) // =======================================================
(PID.TID 0000.0001) // =======================================================
(PID.TID 0000.0001) // Begin OBCS MONITOR field statistics
(PID.TID 0000.0001) // =======================================================
(PID.TID 0000.0001) %MON obc_N_vVel_max               =   1.4737537802656E-05
(PID.TID 0000.0001) %MON obc_N_vVel_min               =   1.4737537802656E-05
(PID.TID 0000.0001) %MON obc_N_vVel_mean              =   1.4737537802656E-05
(PID.TID 0000.0001) %MON obc_N_vVel_sd                =  -4.9113848870336E-24
(PID.TID 0000.0001) %MON obc_N_vVel_Int               =   9.7267749497530E+02
(PID.TID 0000.0001) // =======================================================
(PID.TID 0000.0001) // End OBCS MONITOR field statistics
(PID.TID 0000.0001) // =======================================================
 cg2d: Sum(rhs),rhsMax =   4.51085971980696E+00  2.99913477410959E+02
(PID.TID 0000.0001)      cg2d_init_res =   5.96415731625202E-06
(PID.TID 0000.0001)      cg2d_iters(min,last) =      -1      78
(PID.TID 0000.0001)      cg2d_last_res =   8.93516313008262E-12
(PID.TID 0000.0001) // =======================================================
(PID.TID 0000.0001) // Begin MONITOR dynamic field statistics
(PID.TID 0000.0001) // =======================================================
(PID.TID 0000.0001) %MON time_tsnumber                =                   777
(PID.TID 0000.0001) %MON time_secondsf                =   7.7700000000000E+04
(PID.TID 0000.0001) %MON dynstat_eta_max              =   5.7970760430867E+00
(PID.TID 0000.0001) %MON dynstat_eta_min              =  -1.4194130500084E+01
(PID.TID 0000.0001) %MON dynstat_eta_mean             =  -2.5053104160747E+00
(PID.TID 0000.0001) %MON dynstat_eta_sd               =   4.9503674288135E+00
(PID.TID 0000.0001) %MON dynstat_eta_del2             =   2.0714454460447E-01
(PID.TID 0000.0001) %MON dynstat_uvel_max             =   2.4907270053518E-03
(PID.TID 0000.0001) %MON dynstat_uvel_min             =  -1.1125573995589E-02
(PID.TID 0000.0001) %MON dynstat_uvel_mean            =  -1.1738296039076E-07
(PID.TID 0000.0001) %MON dynstat_uvel_sd              =   3.3744158939888E-04
(PID.TID 0000.0001) %MON dynstat_uvel_del2            =   5.5692821439238E-07
(PID.TID 0000.0001) %MON dynstat_vvel_max             =   9.0901325245341E-03
(PID.TID 0000.0001) %MON dynstat_vvel_min             =  -4.4235242423465E-03
(PID.TID 0000.0001) %MON dynstat_vvel_mean            =   1.4976356157735E-05
(PID.TID 0000.0001) %MON dynstat_vvel_sd              =   2.3310510324938E-04
(PID.TID 0000.0001) %MON dynstat_vvel_del2            =   4.9740371532713E-07
(PID.TID 0000.0001) %MON dynstat_wvel_max             =   4.0851378058910E-04
(PID.TID 0000.0001) %MON dynstat_wvel_min             =  -4.1689012750530E-04
(PID.TID 0000.0001) %MON dynstat_wvel_mean            =   6.6522777475098E-09
(PID.TID 0000.0001) %MON dynstat_wvel_sd              =   1.6186457044183E-05
(PID.TID 0000.0001) %MON dynstat_wvel_del2            =   6.2638213622037E-08
(PID.TID 0000.0001) %MON dynstat_theta_max            =   1.2000000000000E+00
(PID.TID 0000.0001) %MON dynstat_theta_min            =  -1.0000000000000E+00
(PID.TID 0000.0001) %MON dynstat_theta_mean           =   5.6891473057978E-01
(PID.TID 0000.0001) %MON dynstat_theta_sd             =   8.6848281633525E-01
(PID.TID 0000.0001) %MON dynstat_theta_del2           =   1.5498852907588E-06
(PID.TID 0000.0001) %MON dynstat_salt_max             =   3.4700000000000E+01
(PID.TID 0000.0001) %MON dynstat_salt_min             =   3.4000000000000E+01
(PID.TID 0000.0001) %MON dynstat_salt_mean            =   3.4499180061964E+01
(PID.TID 0000.0001) %MON dynstat_salt_sd              =   2.7632887397474E-01
(PID.TID 0000.0001) %MON dynstat_salt_del2            =   6.0261701620797E-07
(PID.TID 0000.0001) %MON advcfl_uvel_max              =   1.1125573995589E-03
(PID.TID 0000.0001) %MON advcfl_vvel_max              =   9.0901325245341E-04
(PID.TID 0000.0001) %MON advcfl_wvel_max              =   2.0844506375265E-03
(PID.TID 0000.0001) %MON advcfl_W_hf_max              =   2.0844506375265E-03
(PID.TID 0000.0001) %MON pe_b_mean                    =  -8.3030235097118E-01
(PID.TID 0000.0001) %MON ke_max                       =   3.5902142650641E-05
(PID.TID 0000.0001) %MON ke_mean                      =   8.3083382463442E-08
(PID.TID 0000.0001) %MON ke_vol                       =   4.2724985297728E+12
(PID.TID 0000.0001) // =======================================================
(PID.TID 0000.0001) // End MONITOR dynamic field statistics
(PID.TID 0000.0001) // =======================================================
(PID.TID 0000.0001) // =======================================================
(PID.TID 0000.0001) // Begin OBCS MONITOR field statistics
(PID.TID 0000.0001) // =======================================================
(PID.TID 0000.0001) %MON obc_N_vVel_max               =   1.4737066683168E-05
(PID.TID 0000.0001) %MON obc_N_vVel_min               =   1.4737066683168E-05
(PID.TID 0000.0001) %MON obc_N_vVel_mean              =   1.4737066683168E-05
(PID.TID 0000.0001) %MON obc_N_vVel_sd                =   2.5062726859970E-12
(PID.TID 0000.0001) %MON obc_N_vVel_Int               =   9.7264640108907E+02
(PID.TID 0000.0001) // =======================================================
(PID.TID 0000.0001) // End OBCS MONITOR field statistics
(PID.TID 0000.0001) // =======================================================
 cg2d: Sum(rhs),rhsMax =   4.51088089194683E+00  2.99913552959134E+02
(PID.TID 0000.0001)      cg2d_init_res =   5.95222637559349E-06
(PID.TID 0000.0001)      cg2d_iters(min,last) =      -1      78
(PID.TID 0000.0001)      cg2d_last_res =   8.94533678009097E-12
(PID.TID 0000.0001) // =======================================================
(PID.TID 0000.0001) // Begin MONITOR dynamic field statistics
(PID.TID 0000.0001) // =======================================================
(PID.TID 0000.0001) %MON time_tsnumber                =                   778
(PID.TID 0000.0001) %MON time_secondsf                =   7.7800000000000E+04
(PID.TID 0000.0001) %MON dynstat_eta_max              =   5.7970669526287E+00
(PID.TID 0000.0001) %MON dynstat_eta_min              =  -1.4194154873075E+01
(PID.TID 0000.0001) %MON dynstat_eta_mean             =  -2.5053228060727E+00
(PID.TID 0000.0001) %MON dynstat_eta_sd               =   4.9503716294950E+00
(PID.TID 0000.0001) %MON dynstat_eta_del2             =   2.0714456039875E-01
(PID.TID 0000.0001) %MON dynstat_uvel_max             =   2.4978797797246E-03
(PID.TID 0000.0001) %MON dynstat_uvel_min             =  -1.1157818721799E-02
(PID.TID 0000.0001) %MON dynstat_uvel_mean            =  -1.1738481260020E-07
(PID.TID 0000.0001) %MON dynstat_uvel_sd              =   3.3826914276069E-04
(PID.TID 0000.0001) %MON dynstat_uvel_del2            =   5.5801341937285E-07
(PID.TID 0000.0001) %MON dynstat_vvel_max             =   9.1154706703245E-03
(PID.TID 0000.0001) %MON dynstat_vvel_min             =  -4.4330330276248E-03
(PID.TID 0000.0001) %MON dynstat_vvel_mean            =   1.4975840298024E-05
(PID.TID 0000.0001) %MON dynstat_vvel_sd              =   2.3354619304441E-04
(PID.TID 0000.0001) %MON dynstat_vvel_del2            =   4.9767156299143E-07
(PID.TID 0000.0001) %MON dynstat_wvel_max             =   4.0984407298294E-04
(PID.TID 0000.0001) %MON dynstat_wvel_min             =  -4.1809981145884E-04
(PID.TID 0000.0001) %MON dynstat_wvel_mean            =   6.6518911671997E-09
(PID.TID 0000.0001) %MON dynstat_wvel_sd              =   1.6024826179223E-05
(PID.TID 0000.0001) %MON dynstat_wvel_del2            =   6.1102664131993E-08
(PID.TID 0000.0001) %MON dynstat_theta_max            =   1.2000000000000E+00
(PID.TID 0000.0001) %MON dynstat_theta_min            =  -1.0000000000000E+00
(PID.TID 0000.0001) %MON dynstat_theta_mean           =   5.6891425664414E-01
(PID.TID 0000.0001) %MON dynstat_theta_sd             =   8.6848255420153E-01
(PID.TID 0000.0001) %MON dynstat_theta_del2           =   1.5527767693006E-06
(PID.TID 0000.0001) %MON dynstat_salt_max             =   3.4700000000000E+01
(PID.TID 0000.0001) %MON dynstat_salt_min             =   3.4000000000000E+01
(PID.TID 0000.0001) %MON dynstat_salt_mean            =   3.4499179872449E+01
(PID.TID 0000.0001) %MON dynstat_salt_sd              =   2.7632877442651E-01
(PID.TID 0000.0001) %MON dynstat_salt_del2            =   6.0377834105178E-07
(PID.TID 0000.0001) %MON advcfl_uvel_max              =   1.1157818721799E-03
(PID.TID 0000.0001) %MON advcfl_vvel_max              =   9.1154706703245E-04
(PID.TID 0000.0001) %MON advcfl_wvel_max              =   2.0904990572942E-03
(PID.TID 0000.0001) %MON advcfl_W_hf_max              =   2.0904990572942E-03
(PID.TID 0000.0001) %MON pe_b_mean                    =  -8.3030580641279E-01
(PID.TID 0000.0001) %MON ke_max                       =   3.6126107570935E-05
(PID.TID 0000.0001) %MON ke_mean                      =   8.3460337478224E-08
(PID.TID 0000.0001) %MON ke_vol                       =   4.2724984561285E+12
(PID.TID 0000.0001) // =======================================================
(PID.TID 0000.0001) // End MONITOR dynamic field statistics
(PID.TID 0000.0001) // =======================================================
(PID.TID 0000.0001) // =======================================================
(PID.TID 0000.0001) // Begin OBCS MONITOR field statistics
(PID.TID 0000.0001) // =======================================================
(PID.TID 0000.0001) %MON obc_N_vVel_max               =   1.4736587470514E-05
(PID.TID 0000.0001) %MON obc_N_vVel_min               =   1.4736587470514E-05
(PID.TID 0000.0001) %MON obc_N_vVel_mean              =   1.4736587470514E-05
(PID.TID 0000.0001) %MON obc_N_vVel_sd                =  -1.2795450100430E-23
(PID.TID 0000.0001) %MON obc_N_vVel_Int               =   9.7261477305395E+02
(PID.TID 0000.0001) // =======================================================
(PID.TID 0000.0001) // End OBCS MONITOR field statistics
(PID.TID 0000.0001) // =======================================================
 cg2d: Sum(rhs),rhsMax =   4.51090204968877E+00  2.99913628498927E+02
(PID.TID 0000.0001)      cg2d_init_res =   5.94165163591430E-06
(PID.TID 0000.0001)      cg2d_iters(min,last) =      -1      78
(PID.TID 0000.0001)      cg2d_last_res =   8.95680982198812E-12
(PID.TID 0000.0001) // =======================================================
(PID.TID 0000.0001) // Begin MONITOR dynamic field statistics
(PID.TID 0000.0001) // =======================================================
(PID.TID 0000.0001) %MON time_tsnumber                =                   779
(PID.TID 0000.0001) %MON time_secondsf                =   7.7900000000000E+04
(PID.TID 0000.0001) %MON dynstat_eta_max              =   5.7970578860608E+00
(PID.TID 0000.0001) %MON dynstat_eta_min              =  -1.4194179229524E+01
(PID.TID 0000.0001) %MON dynstat_eta_mean             =  -2.5053351880100E+00
(PID.TID 0000.0001) %MON dynstat_eta_sd               =   4.9503758281046E+00
(PID.TID 0000.0001) %MON dynstat_eta_del2             =   2.0714457623435E-01
(PID.TID 0000.0001) %MON dynstat_uvel_max             =   2.5050494604386E-03
(PID.TID 0000.0001) %MON dynstat_uvel_min             =  -1.1190138816307E-02
(PID.TID 0000.0001) %MON dynstat_uvel_mean            =  -1.1738724522060E-07
(PID.TID 0000.0001) %MON dynstat_uvel_sd              =   3.3909984142444E-04
(PID.TID 0000.0001) %MON dynstat_uvel_del2            =   5.5910095721977E-07
(PID.TID 0000.0001) %MON dynstat_vvel_max             =   9.1408602040972E-03
(PID.TID 0000.0001) %MON dynstat_vvel_min             =  -4.4425507470187E-03
(PID.TID 0000.0001) %MON dynstat_vvel_mean            =   1.4975332082226E-05
(PID.TID 0000.0001) %MON dynstat_vvel_sd              =   2.3399494835072E-04
(PID.TID 0000.0001) %MON dynstat_vvel_del2            =   4.9803900893153E-07
(PID.TID 0000.0001) %MON dynstat_wvel_max             =   4.1117761514711E-04
(PID.TID 0000.0001) %MON dynstat_wvel_min             =  -4.1931273235477E-04
(PID.TID 0000.0001) %MON dynstat_wvel_mean            =   6.6515923258412E-09
(PID.TID 0000.0001) %MON dynstat_wvel_sd              =   1.5889280221688E-05
(PID.TID 0000.0001) %MON dynstat_wvel_del2            =   5.9774916601187E-08
(PID.TID 0000.0001) %MON dynstat_theta_max            =   1.2000000000000E+00
(PID.TID 0000.0001) %MON dynstat_theta_min            =  -1.0000000000000E+00
(PID.TID 0000.0001) %MON dynstat_theta_mean           =   5.6891378191050E-01
(PID.TID 0000.0001) %MON dynstat_theta_sd             =   8.6848229157057E-01
(PID.TID 0000.0001) %MON dynstat_theta_del2           =   1.5555991110553E-06
(PID.TID 0000.0001) %MON dynstat_salt_max             =   3.4700000000000E+01
(PID.TID 0000.0001) %MON dynstat_salt_min             =   3.4000000000000E+01
(PID.TID 0000.0001) %MON dynstat_salt_mean            =   3.4499179682607E+01
(PID.TID 0000.0001) %MON dynstat_salt_sd              =   2.7632867468225E-01
(PID.TID 0000.0001) %MON dynstat_salt_del2            =   6.0492265160884E-07
(PID.TID 0000.0001) %MON advcfl_uvel_max              =   1.1190138816307E-03
(PID.TID 0000.0001) %MON advcfl_vvel_max              =   9.1408602040972E-04
(PID.TID 0000.0001) %MON advcfl_wvel_max              =   2.0965636617739E-03
(PID.TID 0000.0001) %MON advcfl_W_hf_max              =   2.0965636617739E-03
(PID.TID 0000.0001) %MON pe_b_mean                    =  -8.3030925911859E-01
(PID.TID 0000.0001) %MON ke_max                       =   3.6351381856015E-05
(PID.TID 0000.0001) %MON ke_mean                      =   8.3840997367664E-08
(PID.TID 0000.0001) %MON ke_vol                       =   4.2724983825319E+12
(PID.TID 0000.0001) // =======================================================
(PID.TID 0000.0001) // End MONITOR dynamic field statistics
(PID.TID 0000.0001) // =======================================================
(PID.TID 0000.0001) // =======================================================
(PID.TID 0000.0001) // Begin OBCS MONITOR field statistics
(PID.TID 0000.0001) // =======================================================
(PID.TID 0000.0001) %MON obc_N_vVel_max               =   1.4736107491365E-05
(PID.TID 0000.0001) %MON obc_N_vVel_min               =   1.4736107491365E-05
(PID.TID 0000.0001) %MON obc_N_vVel_mean              =   1.4736107491365E-05
(PID.TID 0000.0001) %MON obc_N_vVel_sd                =   4.2140875377415E-12
(PID.TID 0000.0001) %MON obc_N_vVel_Int               =   9.7258309443008E+02
(PID.TID 0000.0001) // =======================================================
(PID.TID 0000.0001) // End OBCS MONITOR field statistics
(PID.TID 0000.0001) // =======================================================
 cg2d: Sum(rhs),rhsMax =   4.51092319300054E+00  2.99913704029436E+02
(PID.TID 0000.0001)      cg2d_init_res =   5.93348175708207E-06
(PID.TID 0000.0001)      cg2d_iters(min,last) =      -1      78
(PID.TID 0000.0001)      cg2d_last_res =   8.96933793763739E-12
(PID.TID 0000.0001) // =======================================================
(PID.TID 0000.0001) // Begin MONITOR dynamic field statistics
(PID.TID 0000.0001) // =======================================================
(PID.TID 0000.0001) %MON time_tsnumber                =                   780
(PID.TID 0000.0001) %MON time_secondsf                =   7.8000000000000E+04
(PID.TID 0000.0001) %MON dynstat_eta_max              =   5.7970488433971E+00
(PID.TID 0000.0001) %MON dynstat_eta_min              =  -1.4194203569411E+01
(PID.TID 0000.0001) %MON dynstat_eta_mean             =  -2.5053475618613E+00
(PID.TID 0000.0001) %MON dynstat_eta_sd               =   4.9503800246387E+00
(PID.TID 0000.0001) %MON dynstat_eta_del2             =   2.0714459211124E-01
(PID.TID 0000.0001) %MON dynstat_uvel_max             =   2.5122360786867E-03
(PID.TID 0000.0001) %MON dynstat_uvel_min             =  -1.1222534309894E-02
(PID.TID 0000.0001) %MON dynstat_uvel_mean            =  -1.1739021379940E-07
(PID.TID 0000.0001) %MON dynstat_uvel_sd              =   3.3993367298808E-04
(PID.TID 0000.0001) %MON dynstat_uvel_del2            =   5.6019073658083E-07
(PID.TID 0000.0001) %MON dynstat_vvel_max             =   9.1663011753349E-03
(PID.TID 0000.0001) %MON dynstat_vvel_min             =  -4.4520774295025E-03
(PID.TID 0000.0001) %MON dynstat_vvel_mean            =   1.4974839179469E-05
(PID.TID 0000.0001) %MON dynstat_vvel_sd              =   2.3445375824592E-04
(PID.TID 0000.0001) %MON dynstat_vvel_del2            =   4.9854280626164E-07
(PID.TID 0000.0001) %MON dynstat_wvel_max             =   4.1251441406552E-04
(PID.TID 0000.0001) %MON dynstat_wvel_min             =  -4.2052889790349E-04
(PID.TID 0000.0001) %MON dynstat_wvel_mean            =   6.6513832564670E-09
(PID.TID 0000.0001) %MON dynstat_wvel_sd              =   1.5791509162174E-05
(PID.TID 0000.0001) %MON dynstat_wvel_del2            =   5.8782592411563E-08
(PID.TID 0000.0001) %MON dynstat_theta_max            =   1.2000000000000E+00
(PID.TID 0000.0001) %MON dynstat_theta_min            =  -1.0000000000000E+00
(PID.TID 0000.0001) %MON dynstat_theta_mean           =   5.6891330635952E-01
(PID.TID 0000.0001) %MON dynstat_theta_sd             =   8.6848202843555E-01
(PID.TID 0000.0001) %MON dynstat_theta_del2           =   1.5583214271915E-06
(PID.TID 0000.0001) %MON dynstat_salt_max             =   3.4700000000000E+01
(PID.TID 0000.0001) %MON dynstat_salt_min             =   3.4000000000000E+01
(PID.TID 0000.0001) %MON dynstat_salt_mean            =   3.4499179492430E+01
(PID.TID 0000.0001) %MON dynstat_salt_sd              =   2.7632857473972E-01
(PID.TID 0000.0001) %MON dynstat_salt_del2            =   6.0604188028149E-07
(PID.TID 0000.0001) %MON advcfl_uvel_max              =   1.1222534309894E-03
(PID.TID 0000.0001) %MON advcfl_vvel_max              =   9.1663011753349E-04
(PID.TID 0000.0001) %MON advcfl_wvel_max              =   2.1026444895175E-03
(PID.TID 0000.0001) %MON advcfl_W_hf_max              =   2.1026444895175E-03
(PID.TID 0000.0001) %MON pe_b_mean                    =  -8.3031270908184E-01
(PID.TID 0000.0001) %MON ke_max                       =   3.6577972039386E-05
(PID.TID 0000.0001) %MON ke_mean                      =   8.4225936191676E-08
(PID.TID 0000.0001) %MON ke_vol                       =   4.2724983089832E+12
(PID.TID 0000.0001) // =======================================================
(PID.TID 0000.0001) // End MONITOR dynamic field statistics
(PID.TID 0000.0001) // =======================================================
(PID.TID 0000.0001) // =======================================================
(PID.TID 0000.0001) // Begin OBCS MONITOR field statistics
(PID.TID 0000.0001) // =======================================================
(PID.TID 0000.0001) %MON obc_N_vVel_max               =   1.4735633702887E-05
(PID.TID 0000.0001) %MON obc_N_vVel_min               =   1.4735633702887E-05
(PID.TID 0000.0001) %MON obc_N_vVel_mean              =   1.4735633702887E-05
(PID.TID 0000.0001) %MON obc_N_vVel_sd                =   2.0400373665469E-12
(PID.TID 0000.0001) %MON obc_N_vVel_Int               =   9.7255182439054E+02
(PID.TID 0000.0001) // =======================================================
(PID.TID 0000.0001) // End OBCS MONITOR field statistics
(PID.TID 0000.0001) // =======================================================
 cg2d: Sum(rhs),rhsMax =   4.51094432186043E+00  2.99913779549576E+02
(PID.TID 0000.0001)      cg2d_init_res =   5.92852430425695E-06
(PID.TID 0000.0001)      cg2d_iters(min,last) =      -1      78
(PID.TID 0000.0001)      cg2d_last_res =   8.98258455379575E-12
(PID.TID 0000.0001) // =======================================================
(PID.TID 0000.0001) // Begin MONITOR dynamic field statistics
(PID.TID 0000.0001) // =======================================================
(PID.TID 0000.0001) %MON time_tsnumber                =                   781
(PID.TID 0000.0001) %MON time_secondsf                =   7.8100000000000E+04
(PID.TID 0000.0001) %MON dynstat_eta_max              =   5.7970398246373E+00
(PID.TID 0000.0001) %MON dynstat_eta_min              =  -1.4194227892722E+01
(PID.TID 0000.0001) %MON dynstat_eta_mean             =  -2.5053599276053E+00
(PID.TID 0000.0001) %MON dynstat_eta_sd               =   4.9503842190903E+00
(PID.TID 0000.0001) %MON dynstat_eta_del2             =   2.0714460802921E-01
(PID.TID 0000.0001) %MON dynstat_uvel_max             =   2.5194396658890E-03
(PID.TID 0000.0001) %MON dynstat_uvel_min             =  -1.1255005232318E-02
(PID.TID 0000.0001) %MON dynstat_uvel_mean            =  -1.1739364943378E-07
(PID.TID 0000.0001) %MON dynstat_uvel_sd              =   3.4077062758761E-04
(PID.TID 0000.0001) %MON dynstat_uvel_del2            =   5.6128269694376E-07
(PID.TID 0000.0001) %MON dynstat_vvel_max             =   9.1917936330272E-03
(PID.TID 0000.0001) %MON dynstat_vvel_min             =  -4.4616131043043E-03
(PID.TID 0000.0001) %MON dynstat_vvel_mean            =   1.4974367712621E-05
(PID.TID 0000.0001) %MON dynstat_vvel_sd              =   2.3492423155472E-04
(PID.TID 0000.0001) %MON dynstat_vvel_del2            =   4.9920707830809E-07
(PID.TID 0000.0001) %MON dynstat_wvel_max             =   4.1385447670502E-04
(PID.TID 0000.0001) %MON dynstat_wvel_min             =  -4.2174831583841E-04
(PID.TID 0000.0001) %MON dynstat_wvel_mean            =   6.6512624023426E-09
(PID.TID 0000.0001) %MON dynstat_wvel_sd              =   1.5739639171707E-05
(PID.TID 0000.0001) %MON dynstat_wvel_del2            =   5.8223034507557E-08
(PID.TID 0000.0001) %MON dynstat_theta_max            =   1.2000000000000E+00
(PID.TID 0000.0001) %MON dynstat_theta_min            =  -1.0000000000000E+00
(PID.TID 0000.0001) %MON dynstat_theta_mean           =   5.6891282996996E-01
(PID.TID 0000.0001) %MON dynstat_theta_sd             =   8.6848176478745E-01
(PID.TID 0000.0001) %MON dynstat_theta_del2           =   1.5609253582476E-06
(PID.TID 0000.0001) %MON dynstat_salt_max             =   3.4700000000000E+01
(PID.TID 0000.0001) %MON dynstat_salt_min             =   3.4000000000000E+01
(PID.TID 0000.0001) %MON dynstat_salt_mean            =   3.4499179301911E+01
(PID.TID 0000.0001) %MON dynstat_salt_sd              =   2.7632847459589E-01
(PID.TID 0000.0001) %MON dynstat_salt_del2            =   6.0713133914947E-07
(PID.TID 0000.0001) %MON advcfl_uvel_max              =   1.1255005232318E-03
(PID.TID 0000.0001) %MON advcfl_vvel_max              =   9.1917936330272E-04
(PID.TID 0000.0001) %MON advcfl_wvel_max              =   2.1087415791921E-03
(PID.TID 0000.0001) %MON advcfl_W_hf_max              =   2.1087415791921E-03
(PID.TID 0000.0001) %MON pe_b_mean                    =  -8.3031615629641E-01
(PID.TID 0000.0001) %MON ke_max                       =   3.6805884673069E-05
(PID.TID 0000.0001) %MON ke_mean                      =   8.4615550183856E-08
(PID.TID 0000.0001) %MON ke_vol                       =   4.2724982354825E+12
(PID.TID 0000.0001) // =======================================================
(PID.TID 0000.0001) // End MONITOR dynamic field statistics
(PID.TID 0000.0001) // =======================================================
(PID.TID 0000.0001) // =======================================================
(PID.TID 0000.0001) // Begin OBCS MONITOR field statistics
(PID.TID 0000.0001) // =======================================================
(PID.TID 0000.0001) %MON obc_N_vVel_max               =   1.4735171831264E-05
(PID.TID 0000.0001) %MON obc_N_vVel_min               =   1.4735171831264E-05
(PID.TID 0000.0001) %MON obc_N_vVel_mean              =   1.4735171831264E-05
(PID.TID 0000.0001) %MON obc_N_vVel_sd                =  -2.2101231991651E-23
(PID.TID 0000.0001) %MON obc_N_vVel_Int               =   9.7252134086344E+02
(PID.TID 0000.0001) // =======================================================
(PID.TID 0000.0001) // End OBCS MONITOR field statistics
(PID.TID 0000.0001) // =======================================================
 cg2d: Sum(rhs),rhsMax =   4.51096543626280E+00  2.99913855058107E+02
(PID.TID 0000.0001)      cg2d_init_res =   5.92730438067503E-06
(PID.TID 0000.0001)      cg2d_iters(min,last) =      -1      78
(PID.TID 0000.0001)      cg2d_last_res =   8.99636744375595E-12
(PID.TID 0000.0001) // =======================================================
(PID.TID 0000.0001) // Begin MONITOR dynamic field statistics
(PID.TID 0000.0001) // =======================================================
(PID.TID 0000.0001) %MON time_tsnumber                =                   782
(PID.TID 0000.0001) %MON time_secondsf                =   7.8200000000000E+04
(PID.TID 0000.0001) %MON dynstat_eta_max              =   5.7970308297750E+00
(PID.TID 0000.0001) %MON dynstat_eta_min              =  -1.4194252199472E+01
(PID.TID 0000.0001) %MON dynstat_eta_mean             =  -2.5053722852286E+00
(PID.TID 0000.0001) %MON dynstat_eta_sd               =   4.9503884114627E+00
(PID.TID 0000.0001) %MON dynstat_eta_del2             =   2.0714462398853E-01
(PID.TID 0000.0001) %MON dynstat_uvel_max             =   2.5266602534977E-03
(PID.TID 0000.0001) %MON dynstat_uvel_min             =  -1.1287551612050E-02
(PID.TID 0000.0001) %MON dynstat_uvel_mean            =  -1.1739745518565E-07
(PID.TID 0000.0001) %MON dynstat_uvel_sd              =   3.4161069820534E-04
(PID.TID 0000.0001) %MON dynstat_uvel_del2            =   5.6237681059972E-07
(PID.TID 0000.0001) %MON dynstat_vvel_max             =   9.2173376254716E-03
(PID.TID 0000.0001) %MON dynstat_vvel_min             =  -4.4711578009435E-03
(PID.TID 0000.0001) %MON dynstat_vvel_mean            =   1.4973922033351E-05
(PID.TID 0000.0001) %MON dynstat_vvel_sd              =   2.3540707032941E-04
(PID.TID 0000.0001) %MON dynstat_vvel_del2            =   5.0004131098477E-07
(PID.TID 0000.0001) %MON dynstat_wvel_max             =   4.1519781003414E-04
(PID.TID 0000.0001) %MON dynstat_wvel_min             =  -4.2297099379887E-04
(PID.TID 0000.0001) %MON dynstat_wvel_mean            =   6.6512241827306E-09
(PID.TID 0000.0001) %MON dynstat_wvel_sd              =   1.5737310604850E-05
(PID.TID 0000.0001) %MON dynstat_wvel_del2            =   5.8147822637782E-08
(PID.TID 0000.0001) %MON dynstat_theta_max            =   1.2000000000000E+00
(PID.TID 0000.0001) %MON dynstat_theta_min            =  -1.0000000000000E+00
(PID.TID 0000.0001) %MON dynstat_theta_mean           =   5.6891235271970E-01
(PID.TID 0000.0001) %MON dynstat_theta_sd             =   8.6848150061539E-01
(PID.TID 0000.0001) %MON dynstat_theta_del2           =   1.5634067959269E-06
(PID.TID 0000.0001) %MON dynstat_salt_max             =   3.4700000000000E+01
(PID.TID 0000.0001) %MON dynstat_salt_min             =   3.4000000000000E+01
(PID.TID 0000.0001) %MON dynstat_salt_mean            =   3.4499179111044E+01
(PID.TID 0000.0001) %MON dynstat_salt_sd              =   2.7632837424717E-01
(PID.TID 0000.0001) %MON dynstat_salt_del2            =   6.0818990205572E-07
(PID.TID 0000.0001) %MON advcfl_uvel_max              =   1.1287551612050E-03
(PID.TID 0000.0001) %MON advcfl_vvel_max              =   9.2173376254716E-04
(PID.TID 0000.0001) %MON advcfl_wvel_max              =   2.1148549689944E-03
(PID.TID 0000.0001) %MON advcfl_W_hf_max              =   2.1148549689944E-03
(PID.TID 0000.0001) %MON pe_b_mean                    =  -8.3031960075834E-01
(PID.TID 0000.0001) %MON ke_max                       =   3.7035126328227E-05
(PID.TID 0000.0001) %MON ke_mean                      =   8.5010026459009E-08
(PID.TID 0000.0001) %MON ke_vol                       =   4.2724981620300E+12
(PID.TID 0000.0001) // =======================================================
(PID.TID 0000.0001) // End MONITOR dynamic field statistics
(PID.TID 0000.0001) // =======================================================
(PID.TID 0000.0001) // =======================================================
(PID.TID 0000.0001) // Begin OBCS MONITOR field statistics
(PID.TID 0000.0001) // =======================================================
(PID.TID 0000.0001) %MON obc_N_vVel_max               =   1.4734726216113E-05
(PID.TID 0000.0001) %MON obc_N_vVel_min               =   1.4734726216113E-05
(PID.TID 0000.0001) %MON obc_N_vVel_mean              =   1.4734726216113E-05
(PID.TID 0000.0001) %MON obc_N_vVel_sd                =   1.0040549644063E-12
(PID.TID 0000.0001) %MON obc_N_vVel_Int               =   9.7249193026348E+02
(PID.TID 0000.0001) // =======================================================
(PID.TID 0000.0001) // End OBCS MONITOR field statistics
(PID.TID 0000.0001) // =======================================================
 cg2d: Sum(rhs),rhsMax =   4.51098653621060E+00  2.99913930553610E+02
(PID.TID 0000.0001)      cg2d_init_res =   5.92998827232273E-06
(PID.TID 0000.0001)      cg2d_iters(min,last) =      -1      78
(PID.TID 0000.0001)      cg2d_last_res =   9.01096809938491E-12
(PID.TID 0000.0001) // =======================================================
(PID.TID 0000.0001) // Begin MONITOR dynamic field statistics
(PID.TID 0000.0001) // =======================================================
(PID.TID 0000.0001) %MON time_tsnumber                =                   783
(PID.TID 0000.0001) %MON time_secondsf                =   7.8300000000000E+04
(PID.TID 0000.0001) %MON dynstat_eta_max              =   5.7970218587948E+00
(PID.TID 0000.0001) %MON dynstat_eta_min              =  -1.4194276489658E+01
(PID.TID 0000.0001) %MON dynstat_eta_mean             =  -2.5053846347210E+00
(PID.TID 0000.0001) %MON dynstat_eta_sd               =   4.9503926017530E+00
(PID.TID 0000.0001) %MON dynstat_eta_del2             =   2.0714463998930E-01
(PID.TID 0000.0001) %MON dynstat_uvel_max             =   2.5338978732172E-03
(PID.TID 0000.0001) %MON dynstat_uvel_min             =  -1.1320173476516E-02
(PID.TID 0000.0001) %MON dynstat_uvel_mean            =  -1.1740150664895E-07
(PID.TID 0000.0001) %MON dynstat_uvel_sd              =   3.4245388086326E-04
(PID.TID 0000.0001) %MON dynstat_uvel_del2            =   5.6347308304460E-07
(PID.TID 0000.0001) %MON dynstat_vvel_max             =   9.2429331998085E-03
(PID.TID 0000.0001) %MON dynstat_vvel_min             =  -4.4807115491663E-03
(PID.TID 0000.0001) %MON dynstat_vvel_mean            =   1.4973504574295E-05
(PID.TID 0000.0001) %MON dynstat_vvel_sd              =   2.3590202714996E-04
(PID.TID 0000.0001) %MON dynstat_vvel_del2            =   5.0103972930345E-07
(PID.TID 0000.0001) %MON dynstat_wvel_max             =   4.1654442100655E-04
(PID.TID 0000.0001) %MON dynstat_wvel_min             =  -4.2419693936885E-04
(PID.TID 0000.0001) %MON dynstat_wvel_mean            =   6.6512594004875E-09
(PID.TID 0000.0001) %MON dynstat_wvel_sd              =   1.5783282474358E-05
(PID.TID 0000.0001) %MON dynstat_wvel_del2            =   5.8553813260117E-08
(PID.TID 0000.0001) %MON dynstat_theta_max            =   1.2000000000000E+00
(PID.TID 0000.0001) %MON dynstat_theta_min            =  -1.0000000000000E+00
(PID.TID 0000.0001) %MON dynstat_theta_mean           =   5.6891187458579E-01
(PID.TID 0000.0001) %MON dynstat_theta_sd             =   8.6848123591284E-01
(PID.TID 0000.0001) %MON dynstat_theta_del2           =   1.5657765155686E-06
(PID.TID 0000.0001) %MON dynstat_salt_max             =   3.4700000000000E+01
(PID.TID 0000.0001) %MON dynstat_salt_min             =   3.4000000000000E+01
(PID.TID 0000.0001) %MON dynstat_salt_mean            =   3.4499178919819E+01
(PID.TID 0000.0001) %MON dynstat_salt_sd              =   2.7632827369140E-01
(PID.TID 0000.0001) %MON dynstat_salt_del2            =   6.0922044363869E-07
(PID.TID 0000.0001) %MON advcfl_uvel_max              =   1.1320173476516E-03
(PID.TID 0000.0001) %MON advcfl_vvel_max              =   9.2429331998085E-04
(PID.TID 0000.0001) %MON advcfl_wvel_max              =   2.1209846968443E-03
(PID.TID 0000.0001) %MON advcfl_W_hf_max              =   2.1209846968443E-03
(PID.TID 0000.0001) %MON pe_b_mean                    =  -8.3032304246389E-01
(PID.TID 0000.0001) %MON ke_max                       =   3.7265703594394E-05
(PID.TID 0000.0001) %MON ke_mean                      =   8.5409330963559E-08
(PID.TID 0000.0001) %MON ke_vol                       =   4.2724980886257E+12
(PID.TID 0000.0001) // =======================================================
(PID.TID 0000.0001) // End MONITOR dynamic field statistics
(PID.TID 0000.0001) // =======================================================
(PID.TID 0000.0001) // =======================================================
(PID.TID 0000.0001) // Begin OBCS MONITOR field statistics
(PID.TID 0000.0001) // =======================================================
(PID.TID 0000.0001) %MON obc_N_vVel_max               =   1.4734299674888E-05
(PID.TID 0000.0001) %MON obc_N_vVel_min               =   1.4734299674888E-05
(PID.TID 0000.0001) %MON obc_N_vVel_mean              =   1.4734299674888E-05
(PID.TID 0000.0001) %MON obc_N_vVel_sd                =   2.0714727677715E-12
(PID.TID 0000.0001) %MON obc_N_vVel_Int               =   9.7246377854259E+02
(PID.TID 0000.0001) // =======================================================
(PID.TID 0000.0001) // End OBCS MONITOR field statistics
(PID.TID 0000.0001) // =======================================================
 cg2d: Sum(rhs),rhsMax =   4.51100762170698E+00  2.99914006034516E+02
(PID.TID 0000.0001)      cg2d_init_res =   5.93636745407551E-06
(PID.TID 0000.0001)      cg2d_iters(min,last) =      -1      78
(PID.TID 0000.0001)      cg2d_last_res =   9.02651649899652E-12
(PID.TID 0000.0001) // =======================================================
(PID.TID 0000.0001) // Begin MONITOR dynamic field statistics
(PID.TID 0000.0001) // =======================================================
(PID.TID 0000.0001) %MON time_tsnumber                =                   784
(PID.TID 0000.0001) %MON time_secondsf                =   7.8400000000000E+04
(PID.TID 0000.0001) %MON dynstat_eta_max              =   5.7970129116917E+00
(PID.TID 0000.0001) %MON dynstat_eta_min              =  -1.4194300763305E+01
(PID.TID 0000.0001) %MON dynstat_eta_mean             =  -2.5053969760711E+00
(PID.TID 0000.0001) %MON dynstat_eta_sd               =   4.9503967899556E+00
(PID.TID 0000.0001) %MON dynstat_eta_del2             =   2.0714465603146E-01
(PID.TID 0000.0001) %MON dynstat_uvel_max             =   2.5411525568977E-03
(PID.TID 0000.0001) %MON dynstat_uvel_min             =  -1.1352870852001E-02
(PID.TID 0000.0001) %MON dynstat_uvel_mean            =  -1.1740568953216E-07
(PID.TID 0000.0001) %MON dynstat_uvel_sd              =   3.4330017470490E-04
(PID.TID 0000.0001) %MON dynstat_uvel_del2            =   5.6457155119168E-07
(PID.TID 0000.0001) %MON dynstat_vvel_max             =   9.2685804028787E-03
(PID.TID 0000.0001) %MON dynstat_vvel_min             =  -4.4902743789921E-03
(PID.TID 0000.0001) %MON dynstat_vvel_mean            =   1.4973115748141E-05
(PID.TID 0000.0001) %MON dynstat_vvel_sd              =   2.3640794826095E-04
(PID.TID 0000.0001) %MON dynstat_vvel_del2            =   5.0218210256563E-07
(PID.TID 0000.0001) %MON dynstat_wvel_max             =   4.1789431655662E-04
(PID.TID 0000.0001) %MON dynstat_wvel_min             =  -4.2542616010590E-04
(PID.TID 0000.0001) %MON dynstat_wvel_mean            =   6.6513551358660E-09
(PID.TID 0000.0001) %MON dynstat_wvel_sd              =   1.5871646681530E-05
(PID.TID 0000.0001) %MON dynstat_wvel_del2            =   5.9384045623945E-08
(PID.TID 0000.0001) %MON dynstat_theta_max            =   1.2000000000000E+00
(PID.TID 0000.0001) %MON dynstat_theta_min            =  -1.0000000000000E+00
(PID.TID 0000.0001) %MON dynstat_theta_mean           =   5.6891139554460E-01
(PID.TID 0000.0001) %MON dynstat_theta_sd             =   8.6848097066418E-01
(PID.TID 0000.0001) %MON dynstat_theta_del2           =   1.5680585439827E-06
(PID.TID 0000.0001) %MON dynstat_salt_max             =   3.4700000000000E+01
(PID.TID 0000.0001) %MON dynstat_salt_min             =   3.4000000000000E+01
(PID.TID 0000.0001) %MON dynstat_salt_mean            =   3.4499178728231E+01
(PID.TID 0000.0001) %MON dynstat_salt_sd              =   2.7632817292348E-01
(PID.TID 0000.0001) %MON dynstat_salt_del2            =   6.1022920424118E-07
(PID.TID 0000.0001) %MON advcfl_uvel_max              =   1.1352870852001E-03
(PID.TID 0000.0001) %MON advcfl_vvel_max              =   9.2685804028787E-04
(PID.TID 0000.0001) %MON advcfl_wvel_max              =   2.1271308005295E-03
(PID.TID 0000.0001) %MON advcfl_W_hf_max              =   2.1271308005295E-03
(PID.TID 0000.0001) %MON pe_b_mean                    =  -8.3032648140856E-01
(PID.TID 0000.0001) %MON ke_max                       =   3.7497623080403E-05
(PID.TID 0000.0001) %MON ke_mean                      =   8.5813216390013E-08
(PID.TID 0000.0001) %MON ke_vol                       =   4.2724980152698E+12
(PID.TID 0000.0001) // =======================================================
(PID.TID 0000.0001) // End MONITOR dynamic field statistics
(PID.TID 0000.0001) // =======================================================
(PID.TID 0000.0001) // =======================================================
(PID.TID 0000.0001) // Begin OBCS MONITOR field statistics
(PID.TID 0000.0001) // =======================================================
(PID.TID 0000.0001) %MON obc_N_vVel_max               =   1.4733893396093E-05
(PID.TID 0000.0001) %MON obc_N_vVel_min               =   1.4733893396092E-05
(PID.TID 0000.0001) %MON obc_N_vVel_mean              =   1.4733893396092E-05
(PID.TID 0000.0001) %MON obc_N_vVel_sd                =   2.3187656159247E-12
(PID.TID 0000.0001) %MON obc_N_vVel_Int               =   9.7243696414210E+02
(PID.TID 0000.0001) // =======================================================
(PID.TID 0000.0001) // End OBCS MONITOR field statistics
(PID.TID 0000.0001) // =======================================================
 cg2d: Sum(rhs),rhsMax =   4.51102869275667E+00  2.99914081499116E+02
(PID.TID 0000.0001)      cg2d_init_res =   5.94590862805408E-06
(PID.TID 0000.0001)      cg2d_iters(min,last) =      -1      78
(PID.TID 0000.0001)      cg2d_last_res =   9.04295807881637E-12
(PID.TID 0000.0001) // =======================================================
(PID.TID 0000.0001) // Begin MONITOR dynamic field statistics
(PID.TID 0000.0001) // =======================================================
(PID.TID 0000.0001) %MON time_tsnumber                =                   785
(PID.TID 0000.0001) %MON time_secondsf                =   7.8500000000000E+04
(PID.TID 0000.0001) %MON dynstat_eta_max              =   5.7970039884567E+00
(PID.TID 0000.0001) %MON dynstat_eta_min              =  -1.4194325020423E+01
(PID.TID 0000.0001) %MON dynstat_eta_mean             =  -2.5054093092672E+00
(PID.TID 0000.0001) %MON dynstat_eta_sd               =   4.9504009760631E+00
(PID.TID 0000.0001) %MON dynstat_eta_del2             =   2.0714467211490E-01
(PID.TID 0000.0001) %MON dynstat_uvel_max             =   2.5484243364424E-03
(PID.TID 0000.0001) %MON dynstat_uvel_min             =  -1.1385643763685E-02
(PID.TID 0000.0001) %MON dynstat_uvel_mean            =  -1.1740988994934E-07
(PID.TID 0000.0001) %MON dynstat_uvel_sd              =   3.4414958190695E-04
(PID.TID 0000.0001) %MON dynstat_uvel_del2            =   5.6567227993011E-07
(PID.TID 0000.0001) %MON dynstat_vvel_max             =   9.2942792808115E-03
(PID.TID 0000.0001) %MON dynstat_vvel_min             =  -4.4998463207486E-03
(PID.TID 0000.0001) %MON dynstat_vvel_mean            =   1.4972753897396E-05
(PID.TID 0000.0001) %MON dynstat_vvel_sd              =   2.3692289688292E-04
(PID.TID 0000.0001) %MON dynstat_vvel_del2            =   5.0343587530806E-07
(PID.TID 0000.0001) %MON dynstat_wvel_max             =   4.1924750361688E-04
(PID.TID 0000.0001) %MON dynstat_wvel_min             =  -4.2665866352940E-04
(PID.TID 0000.0001) %MON dynstat_wvel_mean            =   6.6514959030780E-09
(PID.TID 0000.0001) %MON dynstat_wvel_sd              =   1.5992606286403E-05
(PID.TID 0000.0001) %MON dynstat_wvel_del2            =   6.0538246275010E-08
(PID.TID 0000.0001) %MON dynstat_theta_max            =   1.2000000000000E+00
(PID.TID 0000.0001) %MON dynstat_theta_min            =  -1.0000000000000E+00
(PID.TID 0000.0001) %MON dynstat_theta_mean           =   5.6891091557259E-01
(PID.TID 0000.0001) %MON dynstat_theta_sd             =   8.6848070486242E-01
(PID.TID 0000.0001) %MON dynstat_theta_del2           =   1.5702879409420E-06
(PID.TID 0000.0001) %MON dynstat_salt_max             =   3.4700000000000E+01
(PID.TID 0000.0001) %MON dynstat_salt_min             =   3.4000000000000E+01
(PID.TID 0000.0001) %MON dynstat_salt_mean            =   3.4499178536270E+01
(PID.TID 0000.0001) %MON dynstat_salt_sd              =   2.7632807194091E-01
(PID.TID 0000.0001) %MON dynstat_salt_del2            =   6.1122532502535E-07
(PID.TID 0000.0001) %MON advcfl_uvel_max              =   1.1385643763685E-03
(PID.TID 0000.0001) %MON advcfl_vvel_max              =   9.2942792808115E-04
(PID.TID 0000.0001) %MON advcfl_wvel_max              =   2.1332933176470E-03
(PID.TID 0000.0001) %MON advcfl_W_hf_max              =   2.1332933176470E-03
(PID.TID 0000.0001) %MON pe_b_mean                    =  -8.3032991758735E-01
(PID.TID 0000.0001) %MON ke_max                       =   3.7730891414972E-05
(PID.TID 0000.0001) %MON ke_mean                      =   8.6221249001047E-08
(PID.TID 0000.0001) %MON ke_vol                       =   4.2724979419621E+12
(PID.TID 0000.0001) // =======================================================
(PID.TID 0000.0001) // End MONITOR dynamic field statistics
(PID.TID 0000.0001) // =======================================================
(PID.TID 0000.0001) // =======================================================
(PID.TID 0000.0001) // Begin OBCS MONITOR field statistics
(PID.TID 0000.0001) // =======================================================
(PID.TID 0000.0001) %MON obc_N_vVel_max               =   1.4733506884386E-05
(PID.TID 0000.0001) %MON obc_N_vVel_min               =   1.4733506884385E-05
(PID.TID 0000.0001) %MON obc_N_vVel_mean              =   1.4733506884386E-05
(PID.TID 0000.0001) %MON obc_N_vVel_sd                =  -2.1687641685375E-23
(PID.TID 0000.0001) %MON obc_N_vVel_Int               =   9.7241145436945E+02
(PID.TID 0000.0001) // =======================================================
(PID.TID 0000.0001) // End OBCS MONITOR field statistics
(PID.TID 0000.0001) // =======================================================
 cg2d: Sum(rhs),rhsMax =   4.51104974935891E+00  2.99914156945591E+02
(PID.TID 0000.0001)      cg2d_init_res =   5.95779992255579E-06
(PID.TID 0000.0001)      cg2d_iters(min,last) =      -1      78
(PID.TID 0000.0001)      cg2d_last_res =   9.06040255236088E-12
(PID.TID 0000.0001) // =======================================================
(PID.TID 0000.0001) // Begin MONITOR dynamic field statistics
(PID.TID 0000.0001) // =======================================================
(PID.TID 0000.0001) %MON time_tsnumber                =                   786
(PID.TID 0000.0001) %MON time_secondsf                =   7.8600000000000E+04
(PID.TID 0000.0001) %MON dynstat_eta_max              =   5.7969950890955E+00
(PID.TID 0000.0001) %MON dynstat_eta_min              =  -1.4194349261016E+01
(PID.TID 0000.0001) %MON dynstat_eta_mean             =  -2.5054216342937E+00
(PID.TID 0000.0001) %MON dynstat_eta_sd               =   4.9504051600672E+00
(PID.TID 0000.0001) %MON dynstat_eta_del2             =   2.0714468823971E-01
(PID.TID 0000.0001) %MON dynstat_uvel_max             =   2.5557132440106E-03
(PID.TID 0000.0001) %MON dynstat_uvel_min             =  -1.1418492235634E-02
(PID.TID 0000.0001) %MON dynstat_uvel_mean            =  -1.1741398158326E-07
(PID.TID 0000.0001) %MON dynstat_uvel_sd              =   3.4500210747474E-04
(PID.TID 0000.0001) %MON dynstat_uvel_del2            =   5.6677535741791E-07
(PID.TID 0000.0001) %MON dynstat_vvel_max             =   9.3200298787561E-03
(PID.TID 0000.0001) %MON dynstat_vvel_min             =  -4.5094274050870E-03
(PID.TID 0000.0001) %MON dynstat_vvel_mean            =   1.4972415376173E-05
(PID.TID 0000.0001) %MON dynstat_vvel_sd              =   2.3744434381152E-04
(PID.TID 0000.0001) %MON dynstat_vvel_del2            =   5.0475938844728E-07
(PID.TID 0000.0001) %MON dynstat_wvel_max             =   4.2060398911502E-04
(PID.TID 0000.0001) %MON dynstat_wvel_min             =  -4.2789445699075E-04
(PID.TID 0000.0001) %MON dynstat_wvel_mean            =   6.6516626126876E-09
(PID.TID 0000.0001) %MON dynstat_wvel_sd              =   1.6133659900021E-05
(PID.TID 0000.0001) %MON dynstat_wvel_del2            =   6.1889202895882E-08
(PID.TID 0000.0001) %MON dynstat_theta_max            =   1.2000000000000E+00
(PID.TID 0000.0001) %MON dynstat_theta_min            =  -1.0000000000000E+00
(PID.TID 0000.0001) %MON dynstat_theta_mean           =   5.6891043464651E-01
(PID.TID 0000.0001) %MON dynstat_theta_sd             =   8.6848043851546E-01
(PID.TID 0000.0001) %MON dynstat_theta_del2           =   1.5725074039438E-06
(PID.TID 0000.0001) %MON dynstat_salt_max             =   3.4700000000000E+01
(PID.TID 0000.0001) %MON dynstat_salt_min             =   3.4000000000000E+01
(PID.TID 0000.0001) %MON dynstat_salt_mean            =   3.4499178343929E+01
(PID.TID 0000.0001) %MON dynstat_salt_sd              =   2.7632797074625E-01
(PID.TID 0000.0001) %MON dynstat_salt_del2            =   6.1221992073506E-07
(PID.TID 0000.0001) %MON advcfl_uvel_max              =   1.1418492235634E-03
(PID.TID 0000.0001) %MON advcfl_vvel_max              =   9.3200298787561E-04
(PID.TID 0000.0001) %MON advcfl_wvel_max              =   2.1394722849538E-03
(PID.TID 0000.0001) %MON advcfl_W_hf_max              =   2.1394722849538E-03
(PID.TID 0000.0001) %MON pe_b_mean                    =  -8.3033335099379E-01
(PID.TID 0000.0001) %MON ke_max                       =   3.7965515244597E-05
(PID.TID 0000.0001) %MON ke_mean                      =   8.6632851660427E-08
(PID.TID 0000.0001) %MON ke_vol                       =   4.2724978687030E+12
(PID.TID 0000.0001) // =======================================================
(PID.TID 0000.0001) // End MONITOR dynamic field statistics
(PID.TID 0000.0001) // =======================================================
(PID.TID 0000.0001) // =======================================================
(PID.TID 0000.0001) // Begin OBCS MONITOR field statistics
(PID.TID 0000.0001) // =======================================================
(PID.TID 0000.0001) %MON obc_N_vVel_max               =   1.4733138039299E-05
(PID.TID 0000.0001) %MON obc_N_vVel_min               =   1.4733138039298E-05
(PID.TID 0000.0001) %MON obc_N_vVel_mean              =   1.4733138039298E-05
(PID.TID 0000.0001) %MON obc_N_vVel_sd                =   3.5625907039485E-12
(PID.TID 0000.0001) %MON obc_N_vVel_Int               =   9.7238711059370E+02
(PID.TID 0000.0001) // =======================================================
(PID.TID 0000.0001) // End OBCS MONITOR field statistics
(PID.TID 0000.0001) // =======================================================
 cg2d: Sum(rhs),rhsMax =   4.51107079150609E+00  2.99914232372019E+02
(PID.TID 0000.0001)      cg2d_init_res =   5.97102746537360E-06
(PID.TID 0000.0001)      cg2d_iters(min,last) =      -1      78
(PID.TID 0000.0001)      cg2d_last_res =   9.07877075428046E-12
(PID.TID 0000.0001) // =======================================================
(PID.TID 0000.0001) // Begin MONITOR dynamic field statistics
(PID.TID 0000.0001) // =======================================================
(PID.TID 0000.0001) %MON time_tsnumber                =                   787
(PID.TID 0000.0001) %MON time_secondsf                =   7.8700000000000E+04
(PID.TID 0000.0001) %MON dynstat_eta_max              =   5.7969862136260E+00
(PID.TID 0000.0001) %MON dynstat_eta_min              =  -1.4194373485088E+01
(PID.TID 0000.0001) %MON dynstat_eta_mean             =  -2.5054339511303E+00
(PID.TID 0000.0001) %MON dynstat_eta_sd               =   4.9504093419604E+00
(PID.TID 0000.0001) %MON dynstat_eta_del2             =   2.0714470440621E-01
(PID.TID 0000.0001) %MON dynstat_uvel_max             =   2.5630193118644E-03
(PID.TID 0000.0001) %MON dynstat_uvel_min             =  -1.1451416290740E-02
(PID.TID 0000.0001) %MON dynstat_uvel_mean            =  -1.1741783549967E-07
(PID.TID 0000.0001) %MON dynstat_uvel_sd              =   3.4585775893989E-04
(PID.TID 0000.0001) %MON dynstat_uvel_del2            =   5.6788088927902E-07
(PID.TID 0000.0001) %MON dynstat_vvel_max             =   9.3458322411415E-03
(PID.TID 0000.0001) %MON dynstat_vvel_min             =  -4.5190176628234E-03
(PID.TID 0000.0001) %MON dynstat_vvel_mean            =   1.4972094696528E-05
(PID.TID 0000.0001) %MON dynstat_vvel_sd              =   2.3796940658796E-04
(PID.TID 0000.0001) %MON dynstat_vvel_del2            =   5.0610585151592E-07
(PID.TID 0000.0001) %MON dynstat_wvel_max             =   4.2196377996636E-04
(PID.TID 0000.0001) %MON dynstat_wvel_min             =  -4.2913354797605E-04
(PID.TID 0000.0001) %MON dynstat_wvel_mean            =   6.6518345175860E-09
(PID.TID 0000.0001) %MON dynstat_wvel_sd              =   1.6280978850023E-05
(PID.TID 0000.0001) %MON dynstat_wvel_del2            =   6.3300145051761E-08
(PID.TID 0000.0001) %MON dynstat_theta_max            =   1.2000000000000E+00
(PID.TID 0000.0001) %MON dynstat_theta_min            =  -1.0000000000000E+00
(PID.TID 0000.0001) %MON dynstat_theta_mean           =   5.6890995274397E-01
(PID.TID 0000.0001) %MON dynstat_theta_sd             =   8.6848017163770E-01
(PID.TID 0000.0001) %MON dynstat_theta_del2           =   1.5747632510592E-06
(PID.TID 0000.0001) %MON dynstat_salt_max             =   3.4700000000000E+01
(PID.TID 0000.0001) %MON dynstat_salt_min             =   3.4000000000000E+01
(PID.TID 0000.0001) %MON dynstat_salt_mean            =   3.4499178151200E+01
(PID.TID 0000.0001) %MON dynstat_salt_sd              =   2.7632786934383E-01
(PID.TID 0000.0001) %MON dynstat_salt_del2            =   6.1322504416733E-07
(PID.TID 0000.0001) %MON advcfl_uvel_max              =   1.1451416290740E-03
(PID.TID 0000.0001) %MON advcfl_vvel_max              =   9.3458322411415E-04
(PID.TID 0000.0001) %MON advcfl_wvel_max              =   2.1456677398802E-03
(PID.TID 0000.0001) %MON advcfl_W_hf_max              =   2.1456677398802E-03
(PID.TID 0000.0001) %MON pe_b_mean                    =  -8.3033678162005E-01
(PID.TID 0000.0001) %MON ke_max                       =   3.8201501234513E-05
(PID.TID 0000.0001) %MON ke_mean                      =   8.7047358940787E-08
(PID.TID 0000.0001) %MON ke_vol                       =   4.2724977954923E+12
(PID.TID 0000.0001) // =======================================================
(PID.TID 0000.0001) // End MONITOR dynamic field statistics
(PID.TID 0000.0001) // =======================================================
(PID.TID 0000.0001) // =======================================================
(PID.TID 0000.0001) // Begin OBCS MONITOR field statistics
(PID.TID 0000.0001) // =======================================================
(PID.TID 0000.0001) %MON obc_N_vVel_max               =   1.4732783108182E-05
(PID.TID 0000.0001) %MON obc_N_vVel_min               =   1.4732783108182E-05
(PID.TID 0000.0001) %MON obc_N_vVel_mean              =   1.4732783108182E-05
(PID.TID 0000.0001) %MON obc_N_vVel_sd                =   2.5522631768403E-12
(PID.TID 0000.0001) %MON obc_N_vVel_Int               =   9.7236368513999E+02
(PID.TID 0000.0001) // =======================================================
(PID.TID 0000.0001) // End OBCS MONITOR field statistics
(PID.TID 0000.0001) // =======================================================
 cg2d: Sum(rhs),rhsMax =   4.51109181918881E+00  2.99914307776430E+02
(PID.TID 0000.0001)      cg2d_init_res =   5.98447808456597E-06
(PID.TID 0000.0001)      cg2d_iters(min,last) =      -1      78
(PID.TID 0000.0001)      cg2d_last_res =   9.09774487042275E-12
(PID.TID 0000.0001) // =======================================================
(PID.TID 0000.0001) // Begin MONITOR dynamic field statistics
(PID.TID 0000.0001) // =======================================================
(PID.TID 0000.0001) %MON time_tsnumber                =                   788
(PID.TID 0000.0001) %MON time_secondsf                =   7.8800000000000E+04
(PID.TID 0000.0001) %MON dynstat_eta_max              =   5.7969773620826E+00
(PID.TID 0000.0001) %MON dynstat_eta_min              =  -1.4194397692622E+01
(PID.TID 0000.0001) %MON dynstat_eta_mean             =  -2.5054462597554E+00
(PID.TID 0000.0001) %MON dynstat_eta_sd               =   4.9504135217340E+00
(PID.TID 0000.0001) %MON dynstat_eta_del2             =   2.0714472061469E-01
(PID.TID 0000.0001) %MON dynstat_uvel_max             =   2.5703425724473E-03
(PID.TID 0000.0001) %MON dynstat_uvel_min             =  -1.1484415950761E-02
(PID.TID 0000.0001) %MON dynstat_uvel_mean            =  -1.1742134607013E-07
(PID.TID 0000.0001) %MON dynstat_uvel_sd              =   3.4671654598633E-04
(PID.TID 0000.0001) %MON dynstat_uvel_del2            =   5.6898899266926E-07
(PID.TID 0000.0001) %MON dynstat_vvel_max             =   9.3716864116953E-03
(PID.TID 0000.0001) %MON dynstat_vvel_min             =  -4.5286171251311E-03
(PID.TID 0000.0001) %MON dynstat_vvel_mean            =   1.4971784673730E-05
(PID.TID 0000.0001) %MON dynstat_vvel_sd              =   2.3849511457583E-04
(PID.TID 0000.0001) %MON dynstat_vvel_del2            =   5.0742767004568E-07
(PID.TID 0000.0001) %MON dynstat_wvel_max             =   4.2332688307030E-04
(PID.TID 0000.0001) %MON dynstat_wvel_min             =  -4.3037594372007E-04
(PID.TID 0000.0001) %MON dynstat_wvel_mean            =   6.6519896154877E-09
(PID.TID 0000.0001) %MON dynstat_wvel_sd              =   1.6420774019762E-05
(PID.TID 0000.0001) %MON dynstat_wvel_del2            =   6.4639537088464E-08
(PID.TID 0000.0001) %MON dynstat_theta_max            =   1.2000000000000E+00
(PID.TID 0000.0001) %MON dynstat_theta_min            =  -1.0000000000000E+00
(PID.TID 0000.0001) %MON dynstat_theta_mean           =   5.6890946984440E-01
(PID.TID 0000.0001) %MON dynstat_theta_sd             =   8.6847990424738E-01
(PID.TID 0000.0001) %MON dynstat_theta_del2           =   1.5771009194407E-06
(PID.TID 0000.0001) %MON dynstat_salt_max             =   3.4700000000000E+01
(PID.TID 0000.0001) %MON dynstat_salt_min             =   3.4000000000000E+01
(PID.TID 0000.0001) %MON dynstat_salt_mean            =   3.4499177958078E+01
(PID.TID 0000.0001) %MON dynstat_salt_sd              =   2.7632776773959E-01
(PID.TID 0000.0001) %MON dynstat_salt_del2            =   6.1425250705151E-07
(PID.TID 0000.0001) %MON advcfl_uvel_max              =   1.1484415950761E-03
(PID.TID 0000.0001) %MON advcfl_vvel_max              =   9.3716864116953E-04
(PID.TID 0000.0001) %MON advcfl_wvel_max              =   2.1518797186003E-03
(PID.TID 0000.0001) %MON advcfl_W_hf_max              =   2.1518797186003E-03
(PID.TID 0000.0001) %MON pe_b_mean                    =  -8.3034020945761E-01
(PID.TID 0000.0001) %MON ke_max                       =   3.8438856069019E-05
(PID.TID 0000.0001) %MON ke_mean                      =   8.7464079161900E-08
(PID.TID 0000.0001) %MON ke_vol                       =   4.2724977223303E+12
(PID.TID 0000.0001) // =======================================================
(PID.TID 0000.0001) // End MONITOR dynamic field statistics
(PID.TID 0000.0001) // =======================================================
(PID.TID 0000.0001) // =======================================================
(PID.TID 0000.0001) // Begin OBCS MONITOR field statistics
(PID.TID 0000.0001) // =======================================================
(PID.TID 0000.0001) %MON obc_N_vVel_max               =   1.4732436831701E-05
(PID.TID 0000.0001) %MON obc_N_vVel_min               =   1.4732436831700E-05
(PID.TID 0000.0001) %MON obc_N_vVel_mean              =   1.4732436831701E-05
(PID.TID 0000.0001) %MON obc_N_vVel_sd                =  -2.8434333556510E-23
(PID.TID 0000.0001) %MON obc_N_vVel_Int               =   9.7234083089225E+02
(PID.TID 0000.0001) // =======================================================
(PID.TID 0000.0001) // End OBCS MONITOR field statistics
(PID.TID 0000.0001) // =======================================================
 cg2d: Sum(rhs),rhsMax =   4.51111283238270E+00  2.99914383156802E+02
(PID.TID 0000.0001)      cg2d_init_res =   5.99702216765143E-06
(PID.TID 0000.0001)      cg2d_iters(min,last) =      -1      78
(PID.TID 0000.0001)      cg2d_last_res =   9.11677358636778E-12
(PID.TID 0000.0001) // =======================================================
(PID.TID 0000.0001) // Begin MONITOR dynamic field statistics
(PID.TID 0000.0001) // =======================================================
(PID.TID 0000.0001) %MON time_tsnumber                =                   789
(PID.TID 0000.0001) %MON time_secondsf                =   7.8900000000000E+04
(PID.TID 0000.0001) %MON dynstat_eta_max              =   5.7969685345180E+00
(PID.TID 0000.0001) %MON dynstat_eta_min              =  -1.4194421883588E+01
(PID.TID 0000.0001) %MON dynstat_eta_mean             =  -2.5054585601385E+00
(PID.TID 0000.0001) %MON dynstat_eta_sd               =   4.9504176993673E+00
(PID.TID 0000.0001) %MON dynstat_eta_del2             =   2.0714473686497E-01
(PID.TID 0000.0001) %MON dynstat_uvel_max             =   2.5776830582451E-03
(PID.TID 0000.0001) %MON dynstat_uvel_min             =  -1.1517491236436E-02
(PID.TID 0000.0001) %MON dynstat_uvel_mean            =  -1.1742443989541E-07
(PID.TID 0000.0001) %MON dynstat_uvel_sd              =   3.4757848001351E-04
(PID.TID 0000.0001) %MON dynstat_uvel_del2            =   5.7009978980865E-07
(PID.TID 0000.0001) %MON dynstat_vvel_max             =   9.3975924335825E-03
(PID.TID 0000.0001) %MON dynstat_vvel_min             =  -4.5382258232625E-03
(PID.TID 0000.0001) %MON dynstat_vvel_mean            =   1.4971476628099E-05
(PID.TID 0000.0001) %MON dynstat_vvel_sd              =   2.3901867552508E-04
(PID.TID 0000.0001) %MON dynstat_vvel_del2            =   5.0868072071821E-07
(PID.TID 0000.0001) %MON dynstat_wvel_max             =   4.2469330531531E-04
(PID.TID 0000.0001) %MON dynstat_wvel_min             =  -4.3162165157460E-04
(PID.TID 0000.0001) %MON dynstat_wvel_mean            =   6.6521052491034E-09
(PID.TID 0000.0001) %MON dynstat_wvel_sd              =   1.6540503409181E-05
(PID.TID 0000.0001) %MON dynstat_wvel_del2            =   6.5791827301106E-08
(PID.TID 0000.0001) %MON dynstat_theta_max            =   1.2000000000000E+00
(PID.TID 0000.0001) %MON dynstat_theta_min            =  -1.0000000000000E+00
(PID.TID 0000.0001) %MON dynstat_theta_mean           =   5.6890898592872E-01
(PID.TID 0000.0001) %MON dynstat_theta_sd             =   8.6847963636125E-01
(PID.TID 0000.0001) %MON dynstat_theta_del2           =   1.5795606636352E-06
(PID.TID 0000.0001) %MON dynstat_salt_max             =   3.4700000000000E+01
(PID.TID 0000.0001) %MON dynstat_salt_min             =   3.4000000000000E+01
(PID.TID 0000.0001) %MON dynstat_salt_mean            =   3.4499177764554E+01
(PID.TID 0000.0001) %MON dynstat_salt_sd              =   2.7632766593836E-01
(PID.TID 0000.0001) %MON dynstat_salt_del2            =   6.1531276844192E-07
(PID.TID 0000.0001) %MON advcfl_uvel_max              =   1.1517491236436E-03
(PID.TID 0000.0001) %MON advcfl_vvel_max              =   9.3975924335825E-04
(PID.TID 0000.0001) %MON advcfl_wvel_max              =   2.1581082578730E-03
(PID.TID 0000.0001) %MON advcfl_W_hf_max              =   2.1581082578730E-03
(PID.TID 0000.0001) %MON pe_b_mean                    =  -8.3034363449467E-01
(PID.TID 0000.0001) %MON ke_max                       =   3.8677586452116E-05
(PID.TID 0000.0001) %MON ke_mean                      =   8.7882357668803E-08
(PID.TID 0000.0001) %MON ke_vol                       =   4.2724976492171E+12
(PID.TID 0000.0001) // =======================================================
(PID.TID 0000.0001) // End MONITOR dynamic field statistics
(PID.TID 0000.0001) // =======================================================
(PID.TID 0000.0001) // =======================================================
(PID.TID 0000.0001) // Begin OBCS MONITOR field statistics
(PID.TID 0000.0001) // =======================================================
(PID.TID 0000.0001) %MON obc_N_vVel_max               =   1.4732092622808E-05
(PID.TID 0000.0001) %MON obc_N_vVel_min               =   1.4732092622807E-05
(PID.TID 0000.0001) %MON obc_N_vVel_mean              =   1.4732092622808E-05
(PID.TID 0000.0001) %MON obc_N_vVel_sd                =  -2.5073912318014E-24
(PID.TID 0000.0001) %MON obc_N_vVel_Int               =   9.7231811310530E+02
(PID.TID 0000.0001) // =======================================================
(PID.TID 0000.0001) // End OBCS MONITOR field statistics
(PID.TID 0000.0001) // =======================================================
 cg2d: Sum(rhs),rhsMax =   4.51113383104870E+00  2.99914458511098E+02
(PID.TID 0000.0001)      cg2d_init_res =   6.00764105056041E-06
(PID.TID 0000.0001)      cg2d_iters(min,last) =      -1      78
(PID.TID 0000.0001)      cg2d_last_res =   9.13513829396888E-12
(PID.TID 0000.0001) // =======================================================
(PID.TID 0000.0001) // Begin MONITOR dynamic field statistics
(PID.TID 0000.0001) // =======================================================
(PID.TID 0000.0001) %MON time_tsnumber                =                   790
(PID.TID 0000.0001) %MON time_secondsf                =   7.9000000000000E+04
(PID.TID 0000.0001) %MON dynstat_eta_max              =   5.7969597310096E+00
(PID.TID 0000.0001) %MON dynstat_eta_min              =  -1.4194446057940E+01
(PID.TID 0000.0001) %MON dynstat_eta_mean             =  -2.5054708522409E+00
(PID.TID 0000.0001) %MON dynstat_eta_sd               =   4.9504218748409E+00
(PID.TID 0000.0001) %MON dynstat_eta_del2             =   2.0714475315713E-01
(PID.TID 0000.0001) %MON dynstat_uvel_max             =   2.5850408017938E-03
(PID.TID 0000.0001) %MON dynstat_uvel_min             =  -1.1550642167617E-02
(PID.TID 0000.0001) %MON dynstat_uvel_mean            =  -1.1742706639801E-07
(PID.TID 0000.0001) %MON dynstat_uvel_sd              =   3.4844357369650E-04
(PID.TID 0000.0001) %MON dynstat_uvel_del2            =   5.7121340239881E-07
(PID.TID 0000.0001) %MON dynstat_vvel_max             =   9.4235503492963E-03
(PID.TID 0000.0001) %MON dynstat_vvel_min             =  -4.5478437887763E-03
(PID.TID 0000.0001) %MON dynstat_vvel_mean            =   1.4971160638043E-05
(PID.TID 0000.0001) %MON dynstat_vvel_sd              =   2.3953771967631E-04
(PID.TID 0000.0001) %MON dynstat_vvel_del2            =   5.0982819535276E-07
(PID.TID 0000.0001) %MON dynstat_wvel_max             =   4.2606305358001E-04
(PID.TID 0000.0001) %MON dynstat_wvel_min             =  -4.3287067873128E-04
(PID.TID 0000.0001) %MON dynstat_wvel_mean            =   6.6521589987824E-09
(PID.TID 0000.0001) %MON dynstat_wvel_sd              =   1.6629838010359E-05
(PID.TID 0000.0001) %MON dynstat_wvel_del2            =   6.6664331150240E-08
(PID.TID 0000.0001) %MON dynstat_theta_max            =   1.2000000000000E+00
(PID.TID 0000.0001) %MON dynstat_theta_min            =  -1.0000000000000E+00
(PID.TID 0000.0001) %MON dynstat_theta_mean           =   5.6890850097985E-01
(PID.TID 0000.0001) %MON dynstat_theta_sd             =   8.6847936799652E-01
(PID.TID 0000.0001) %MON dynstat_theta_del2           =   1.5821737791417E-06
(PID.TID 0000.0001) %MON dynstat_salt_max             =   3.4700000000000E+01
(PID.TID 0000.0001) %MON dynstat_salt_min             =   3.4000000000000E+01
(PID.TID 0000.0001) %MON dynstat_salt_mean            =   3.4499177570624E+01
(PID.TID 0000.0001) %MON dynstat_salt_sd              =   2.7632756394572E-01
(PID.TID 0000.0001) %MON dynstat_salt_del2            =   6.1641395243997E-07
(PID.TID 0000.0001) %MON advcfl_uvel_max              =   1.1550642167617E-03
(PID.TID 0000.0001) %MON advcfl_vvel_max              =   9.4235503492963E-04
(PID.TID 0000.0001) %MON advcfl_wvel_max              =   2.1643533936564E-03
(PID.TID 0000.0001) %MON advcfl_W_hf_max              =   2.1643533936564E-03
(PID.TID 0000.0001) %MON pe_b_mean                    =  -8.3034705671727E-01
(PID.TID 0000.0001) %MON ke_max                       =   3.8917699107374E-05
(PID.TID 0000.0001) %MON ke_mean                      =   8.8301635647568E-08
(PID.TID 0000.0001) %MON ke_vol                       =   4.2724975761528E+12
(PID.TID 0000.0001) // =======================================================
(PID.TID 0000.0001) // End MONITOR dynamic field statistics
(PID.TID 0000.0001) // =======================================================
(PID.TID 0000.0001) // =======================================================
(PID.TID 0000.0001) // Begin OBCS MONITOR field statistics
(PID.TID 0000.0001) // =======================================================
(PID.TID 0000.0001) %MON obc_N_vVel_max               =   1.4731742754188E-05
(PID.TID 0000.0001) %MON obc_N_vVel_min               =   1.4731742754188E-05
(PID.TID 0000.0001) %MON obc_N_vVel_mean              =   1.4731742754188E-05
(PID.TID 0000.0001) %MON obc_N_vVel_sd                =   3.7326697473377E-12
(PID.TID 0000.0001) %MON obc_N_vVel_Int               =   9.7229502177641E+02
(PID.TID 0000.0001) // =======================================================
(PID.TID 0000.0001) // End OBCS MONITOR field statistics
(PID.TID 0000.0001) // =======================================================
 cg2d: Sum(rhs),rhsMax =   4.51115481512522E+00  2.99914533837283E+02
(PID.TID 0000.0001)      cg2d_init_res =   6.01549986857079E-06
(PID.TID 0000.0001)      cg2d_iters(min,last) =      -1      78
(PID.TID 0000.0001)      cg2d_last_res =   9.15222258303036E-12
(PID.TID 0000.0001) // =======================================================
(PID.TID 0000.0001) // Begin MONITOR dynamic field statistics
(PID.TID 0000.0001) // =======================================================
(PID.TID 0000.0001) %MON time_tsnumber                =                   791
(PID.TID 0000.0001) %MON time_secondsf                =   7.9100000000000E+04
(PID.TID 0000.0001) %MON dynstat_eta_max              =   5.7969509516618E+00
(PID.TID 0000.0001) %MON dynstat_eta_min              =  -1.4194470215606E+01
(PID.TID 0000.0001) %MON dynstat_eta_mean             =  -2.5054831360113E+00
(PID.TID 0000.0001) %MON dynstat_eta_sd               =   4.9504260481320E+00
(PID.TID 0000.0001) %MON dynstat_eta_del2             =   2.0714476949130E-01
(PID.TID 0000.0001) %MON dynstat_uvel_max             =   2.5924158357107E-03
(PID.TID 0000.0001) %MON dynstat_uvel_min             =  -1.1583868763118E-02
(PID.TID 0000.0001) %MON dynstat_uvel_mean            =  -1.1742919644881E-07
(PID.TID 0000.0001) %MON dynstat_uvel_sd              =   3.4931184054300E-04
(PID.TID 0000.0001) %MON dynstat_uvel_del2            =   5.7232994678497E-07
(PID.TID 0000.0001) %MON dynstat_vvel_max             =   9.4495602008045E-03
(PID.TID 0000.0001) %MON dynstat_vvel_min             =  -4.5574710532543E-03
(PID.TID 0000.0001) %MON dynstat_vvel_mean            =   1.4970825846461E-05
(PID.TID 0000.0001) %MON dynstat_vvel_sd              =   2.4005050026098E-04
(PID.TID 0000.0001) %MON dynstat_vvel_del2            =   5.1084369548057E-07
(PID.TID 0000.0001) %MON dynstat_wvel_max             =   4.2743613472696E-04
(PID.TID 0000.0001) %MON dynstat_wvel_min             =  -4.3412303241253E-04
(PID.TID 0000.0001) %MON dynstat_wvel_mean            =   6.6521291110672E-09
(PID.TID 0000.0001) %MON dynstat_wvel_sd              =   1.6681358722124E-05
(PID.TID 0000.0001) %MON dynstat_wvel_del2            =   6.7191148195768E-08
(PID.TID 0000.0001) %MON dynstat_theta_max            =   1.2000000000000E+00
(PID.TID 0000.0001) %MON dynstat_theta_min            =  -1.0000000000000E+00
(PID.TID 0000.0001) %MON dynstat_theta_mean           =   5.6890801498264E-01
(PID.TID 0000.0001) %MON dynstat_theta_sd             =   8.6847909916718E-01
(PID.TID 0000.0001) %MON dynstat_theta_del2           =   1.5849596733189E-06
(PID.TID 0000.0001) %MON dynstat_salt_max             =   3.4700000000000E+01
(PID.TID 0000.0001) %MON dynstat_salt_min             =   3.4000000000000E+01
(PID.TID 0000.0001) %MON dynstat_salt_mean            =   3.4499177376282E+01
(PID.TID 0000.0001) %MON dynstat_salt_sd              =   2.7632746176614E-01
(PID.TID 0000.0001) %MON dynstat_salt_del2            =   6.1756108466588E-07
(PID.TID 0000.0001) %MON advcfl_uvel_max              =   1.1583868763118E-03
(PID.TID 0000.0001) %MON advcfl_vvel_max              =   9.4495602008045E-04
(PID.TID 0000.0001) %MON advcfl_wvel_max              =   2.1706151620626E-03
(PID.TID 0000.0001) %MON advcfl_W_hf_max              =   2.1706151620626E-03
(PID.TID 0000.0001) %MON pe_b_mean                    =  -8.3035047610798E-01
(PID.TID 0000.0001) %MON ke_max                       =   3.9159200780883E-05
(PID.TID 0000.0001) %MON ke_mean                      =   8.8721499289713E-08
(PID.TID 0000.0001) %MON ke_vol                       =   4.2724975031377E+12
(PID.TID 0000.0001) // =======================================================
(PID.TID 0000.0001) // End MONITOR dynamic field statistics
(PID.TID 0000.0001) // =======================================================
(PID.TID 0000.0001) // =======================================================
(PID.TID 0000.0001) // Begin OBCS MONITOR field statistics
(PID.TID 0000.0001) // =======================================================
(PID.TID 0000.0001) %MON obc_N_vVel_max               =   1.4731378614584E-05
(PID.TID 0000.0001) %MON obc_N_vVel_min               =   1.4731378614584E-05
(PID.TID 0000.0001) %MON obc_N_vVel_mean              =   1.4731378614584E-05
(PID.TID 0000.0001) %MON obc_N_vVel_sd                =  -8.0650109723920E-24
(PID.TID 0000.0001) %MON obc_N_vVel_Int               =   9.7227098856253E+02
(PID.TID 0000.0001) // =======================================================
(PID.TID 0000.0001) // End OBCS MONITOR field statistics
(PID.TID 0000.0001) // =======================================================
 cg2d: Sum(rhs),rhsMax =   4.51117578453481E+00  2.99914609133369E+02
(PID.TID 0000.0001)      cg2d_init_res =   6.02002627630029E-06
(PID.TID 0000.0001)      cg2d_iters(min,last) =      -1      78
(PID.TID 0000.0001)      cg2d_last_res =   9.16733710996437E-12
(PID.TID 0000.0001) // =======================================================
(PID.TID 0000.0001) // Begin MONITOR dynamic field statistics
(PID.TID 0000.0001) // =======================================================
(PID.TID 0000.0001) %MON time_tsnumber                =                   792
(PID.TID 0000.0001) %MON time_secondsf                =   7.9200000000000E+04
(PID.TID 0000.0001) %MON dynstat_eta_max              =   5.7969421965929E+00
(PID.TID 0000.0001) %MON dynstat_eta_min              =  -1.4194494356504E+01
(PID.TID 0000.0001) %MON dynstat_eta_mean             =  -2.5054954113901E+00
(PID.TID 0000.0001) %MON dynstat_eta_sd               =   4.9504302192151E+00
(PID.TID 0000.0001) %MON dynstat_eta_del2             =   2.0714478586767E-01
(PID.TID 0000.0001) %MON dynstat_uvel_max             =   2.5998081924925E-03
(PID.TID 0000.0001) %MON dynstat_uvel_min             =  -1.1617171040736E-02
(PID.TID 0000.0001) %MON dynstat_uvel_mean            =  -1.1743081893037E-07
(PID.TID 0000.0001) %MON dynstat_uvel_sd              =   3.5018329449366E-04
(PID.TID 0000.0001) %MON dynstat_uvel_del2            =   5.7344953032076E-07
(PID.TID 0000.0001) %MON dynstat_vvel_max             =   9.4756220295142E-03
(PID.TID 0000.0001) %MON dynstat_vvel_min             =  -4.5671076483833E-03
(PID.TID 0000.0001) %MON dynstat_vvel_mean            =   1.4970460790294E-05
(PID.TID 0000.0001) %MON dynstat_vvel_sd              =   2.4055603352897E-04
(PID.TID 0000.0001) %MON dynstat_vvel_del2            =   5.1171333843090E-07
(PID.TID 0000.0001) %MON dynstat_wvel_max             =   4.2881255560680E-04
(PID.TID 0000.0001) %MON dynstat_wvel_min             =  -4.3537871974439E-04
(PID.TID 0000.0001) %MON dynstat_wvel_mean            =   6.6519952112522E-09
(PID.TID 0000.0001) %MON dynstat_wvel_sd              =   1.6690989877556E-05
(PID.TID 0000.0001) %MON dynstat_wvel_del2            =   6.7335064924822E-08
(PID.TID 0000.0001) %MON dynstat_theta_max            =   1.2000000000000E+00
(PID.TID 0000.0001) %MON dynstat_theta_min            =  -1.0000000000000E+00
(PID.TID 0000.0001) %MON dynstat_theta_mean           =   5.6890752792460E-01
(PID.TID 0000.0001) %MON dynstat_theta_sd             =   8.6847882988221E-01
(PID.TID 0000.0001) %MON dynstat_theta_del2           =   1.5879240325965E-06
(PID.TID 0000.0001) %MON dynstat_salt_max             =   3.4700000000000E+01
(PID.TID 0000.0001) %MON dynstat_salt_min             =   3.4000000000000E+01
(PID.TID 0000.0001) %MON dynstat_salt_mean            =   3.4499177181525E+01
(PID.TID 0000.0001) %MON dynstat_salt_sd              =   2.7632735940199E-01
(PID.TID 0000.0001) %MON dynstat_salt_del2            =   6.1875563600790E-07
(PID.TID 0000.0001) %MON advcfl_uvel_max              =   1.1617171040736E-03
(PID.TID 0000.0001) %MON advcfl_vvel_max              =   9.4756220295142E-04
(PID.TID 0000.0001) %MON advcfl_wvel_max              =   2.1768935987220E-03
(PID.TID 0000.0001) %MON advcfl_W_hf_max              =   2.1768935987220E-03
(PID.TID 0000.0001) %MON pe_b_mean                    =  -8.3035389264698E-01
(PID.TID 0000.0001) %MON ke_max                       =   3.9402098231224E-05
(PID.TID 0000.0001) %MON ke_mean                      =   8.9141715050237E-08
(PID.TID 0000.0001) %MON ke_vol                       =   4.2724974301721E+12
(PID.TID 0000.0001) // =======================================================
(PID.TID 0000.0001) // End MONITOR dynamic field statistics
(PID.TID 0000.0001) // =======================================================
(PID.TID 0000.0001) // =======================================================
(PID.TID 0000.0001) // Begin OBCS MONITOR field statistics
(PID.TID 0000.0001) // =======================================================
(PID.TID 0000.0001) %MON obc_N_vVel_max               =   1.4730990947289E-05
(PID.TID 0000.0001) %MON obc_N_vVel_min               =   1.4730990947289E-05
(PID.TID 0000.0001) %MON obc_N_vVel_mean              =   1.4730990947289E-05
(PID.TID 0000.0001) %MON obc_N_vVel_sd                =   3.9676543489384E-12
(PID.TID 0000.0001) %MON obc_N_vVel_Int               =   9.7224540252106E+02
(PID.TID 0000.0001) // =======================================================
(PID.TID 0000.0001) // End OBCS MONITOR field statistics
(PID.TID 0000.0001) // =======================================================
 cg2d: Sum(rhs),rhsMax =   4.51119673918656E+00  2.99914684397446E+02
(PID.TID 0000.0001)      cg2d_init_res =   6.02094792114868E-06
(PID.TID 0000.0001)      cg2d_iters(min,last) =      -1      78
(PID.TID 0000.0001)      cg2d_last_res =   9.17999155991751E-12
(PID.TID 0000.0001) // =======================================================
(PID.TID 0000.0001) // Begin MONITOR dynamic field statistics
(PID.TID 0000.0001) // =======================================================
(PID.TID 0000.0001) %MON time_tsnumber                =                   793
(PID.TID 0000.0001) %MON time_secondsf                =   7.9300000000000E+04
(PID.TID 0000.0001) %MON dynstat_eta_max              =   5.7969334659572E+00
(PID.TID 0000.0001) %MON dynstat_eta_min              =  -1.4194518480516E+01
(PID.TID 0000.0001) %MON dynstat_eta_mean             =  -2.5055076783110E+00
(PID.TID 0000.0001) %MON dynstat_eta_sd               =   4.9504343880627E+00
(PID.TID 0000.0001) %MON dynstat_eta_del2             =   2.0714480228641E-01
(PID.TID 0000.0001) %MON dynstat_uvel_max             =   2.6072179046785E-03
(PID.TID 0000.0001) %MON dynstat_uvel_min             =  -1.1650549017464E-02
(PID.TID 0000.0001) %MON dynstat_uvel_mean            =  -1.1743194416090E-07
(PID.TID 0000.0001) %MON dynstat_uvel_sd              =   3.5105794952483E-04
(PID.TID 0000.0001) %MON dynstat_uvel_del2            =   5.7457224891910E-07
(PID.TID 0000.0001) %MON dynstat_vvel_max             =   9.5017358764844E-03
(PID.TID 0000.0001) %MON dynstat_vvel_min             =  -4.5767536058650E-03
(PID.TID 0000.0001) %MON dynstat_vvel_mean            =   1.4970053750096E-05
(PID.TID 0000.0001) %MON dynstat_vvel_sd              =   2.4105416732017E-04
(PID.TID 0000.0001) %MON dynstat_vvel_del2            =   5.1243672657047E-07
(PID.TID 0000.0001) %MON dynstat_wvel_max             =   4.3019232305543E-04
(PID.TID 0000.0001) %MON dynstat_wvel_min             =  -4.3663774784985E-04
(PID.TID 0000.0001) %MON dynstat_wvel_mean            =   6.6517389629487E-09
(PID.TID 0000.0001) %MON dynstat_wvel_sd              =   1.6658187845977E-05
(PID.TID 0000.0001) %MON dynstat_wvel_del2            =   6.7088148693271E-08
(PID.TID 0000.0001) %MON dynstat_theta_max            =   1.2000000000000E+00
(PID.TID 0000.0001) %MON dynstat_theta_min            =  -1.0000000000000E+00
(PID.TID 0000.0001) %MON dynstat_theta_mean           =   5.6890703979635E-01
(PID.TID 0000.0001) %MON dynstat_theta_sd             =   8.6847856014165E-01
(PID.TID 0000.0001) %MON dynstat_theta_del2           =   1.5910581208531E-06
(PID.TID 0000.0001) %MON dynstat_salt_max             =   3.4700000000000E+01
(PID.TID 0000.0001) %MON dynstat_salt_min             =   3.4000000000000E+01
(PID.TID 0000.0001) %MON dynstat_salt_mean            =   3.4499176986348E+01
(PID.TID 0000.0001) %MON dynstat_salt_sd              =   2.7632725685345E-01
(PID.TID 0000.0001) %MON dynstat_salt_del2            =   6.1999545859714E-07
(PID.TID 0000.0001) %MON advcfl_uvel_max              =   1.1650549017464E-03
(PID.TID 0000.0001) %MON advcfl_vvel_max              =   9.5017358764844E-04
(PID.TID 0000.0001) %MON advcfl_wvel_max              =   2.1831887392493E-03
(PID.TID 0000.0001) %MON advcfl_W_hf_max              =   2.1831887392493E-03
(PID.TID 0000.0001) %MON pe_b_mean                    =  -8.3035730631263E-01
(PID.TID 0000.0001) %MON ke_max                       =   3.9646398225937E-05
(PID.TID 0000.0001) %MON ke_mean                      =   8.9562248065342E-08
(PID.TID 0000.0001) %MON ke_vol                       =   4.2724973572563E+12
(PID.TID 0000.0001) // =======================================================
(PID.TID 0000.0001) // End MONITOR dynamic field statistics
(PID.TID 0000.0001) // =======================================================
(PID.TID 0000.0001) // =======================================================
(PID.TID 0000.0001) // Begin OBCS MONITOR field statistics
(PID.TID 0000.0001) // =======================================================
(PID.TID 0000.0001) %MON obc_N_vVel_max               =   1.4730570107351E-05
(PID.TID 0000.0001) %MON obc_N_vVel_min               =   1.4730570107351E-05
(PID.TID 0000.0001) %MON obc_N_vVel_mean              =   1.4730570107351E-05
(PID.TID 0000.0001) %MON obc_N_vVel_sd                =  -1.6078323156499E-23
(PID.TID 0000.0001) %MON obc_N_vVel_Int               =   9.7221762708519E+02
(PID.TID 0000.0001) // =======================================================
(PID.TID 0000.0001) // End OBCS MONITOR field statistics
(PID.TID 0000.0001) // =======================================================
 cg2d: Sum(rhs),rhsMax =   4.51121767896800E+00  2.99914759627682E+02
(PID.TID 0000.0001)      cg2d_init_res =   6.01832666030757E-06
(PID.TID 0000.0001)      cg2d_iters(min,last) =      -1      78
(PID.TID 0000.0001)      cg2d_last_res =   9.18996085879792E-12
(PID.TID 0000.0001) // =======================================================
(PID.TID 0000.0001) // Begin MONITOR dynamic field statistics
(PID.TID 0000.0001) // =======================================================
(PID.TID 0000.0001) %MON time_tsnumber                =                   794
(PID.TID 0000.0001) %MON time_secondsf                =   7.9400000000000E+04
(PID.TID 0000.0001) %MON dynstat_eta_max              =   5.7969247599301E+00
(PID.TID 0000.0001) %MON dynstat_eta_min              =  -1.4194542587510E+01
(PID.TID 0000.0001) %MON dynstat_eta_mean             =  -2.5055199366960E+00
(PID.TID 0000.0001) %MON dynstat_eta_sd               =   4.9504385546443E+00
(PID.TID 0000.0001) %MON dynstat_eta_del2             =   2.0714481874780E-01
(PID.TID 0000.0001) %MON dynstat_uvel_max             =   2.6146450046554E-03
(PID.TID 0000.0001) %MON dynstat_uvel_min             =  -1.1684002709345E-02
(PID.TID 0000.0001) %MON dynstat_uvel_mean            =  -1.1743257771307E-07
(PID.TID 0000.0001) %MON dynstat_uvel_sd              =   3.5193581928113E-04
(PID.TID 0000.0001) %MON dynstat_uvel_del2            =   5.7569818688016E-07
(PID.TID 0000.0001) %MON dynstat_vvel_max             =   9.5279017823380E-03
(PID.TID 0000.0001) %MON dynstat_vvel_min             =  -4.5864089573264E-03
(PID.TID 0000.0001) %MON dynstat_vvel_mean            =   1.4969593087794E-05
(PID.TID 0000.0001) %MON dynstat_vvel_sd              =   2.4154557368018E-04
(PID.TID 0000.0001) %MON dynstat_vvel_del2            =   5.1302672664788E-07
(PID.TID 0000.0001) %MON dynstat_wvel_max             =   4.3157544389108E-04
(PID.TID 0000.0001) %MON dynstat_wvel_min             =  -4.3790012383989E-04
(PID.TID 0000.0001) %MON dynstat_wvel_mean            =   6.6513444291047E-09
(PID.TID 0000.0001) %MON dynstat_wvel_sd              =   1.6585902037312E-05
(PID.TID 0000.0001) %MON dynstat_wvel_del2            =   6.6471423623966E-08
(PID.TID 0000.0001) %MON dynstat_theta_max            =   1.2000000000000E+00
(PID.TID 0000.0001) %MON dynstat_theta_min            =  -1.0000000000000E+00
(PID.TID 0000.0001) %MON dynstat_theta_mean           =   5.6890655059096E-01
(PID.TID 0000.0001) %MON dynstat_theta_sd             =   8.6847828994619E-01
(PID.TID 0000.0001) %MON dynstat_theta_del2           =   1.5943395423613E-06
(PID.TID 0000.0001) %MON dynstat_salt_max             =   3.4700000000000E+01
(PID.TID 0000.0001) %MON dynstat_salt_min             =   3.4000000000000E+01
(PID.TID 0000.0001) %MON dynstat_salt_mean            =   3.4499176790749E+01
(PID.TID 0000.0001) %MON dynstat_salt_sd              =   2.7632715412045E-01
(PID.TID 0000.0001) %MON dynstat_salt_del2            =   6.2127462715395E-07
(PID.TID 0000.0001) %MON advcfl_uvel_max              =   1.1684002709345E-03
(PID.TID 0000.0001) %MON advcfl_vvel_max              =   9.5279017823380E-04
(PID.TID 0000.0001) %MON advcfl_wvel_max              =   2.1895006191995E-03
(PID.TID 0000.0001) %MON advcfl_W_hf_max              =   2.1895006191995E-03
(PID.TID 0000.0001) %MON pe_b_mean                    =  -8.3036071708019E-01
(PID.TID 0000.0001) %MON ke_max                       =   3.9892107551958E-05
(PID.TID 0000.0001) %MON ke_mean                      =   8.9983262360069E-08
(PID.TID 0000.0001) %MON ke_vol                       =   4.2724972843908E+12
(PID.TID 0000.0001) // =======================================================
(PID.TID 0000.0001) // End MONITOR dynamic field statistics
(PID.TID 0000.0001) // =======================================================
(PID.TID 0000.0001) // =======================================================
(PID.TID 0000.0001) // Begin OBCS MONITOR field statistics
(PID.TID 0000.0001) // =======================================================
(PID.TID 0000.0001) %MON obc_N_vVel_max               =   1.4730106333906E-05
(PID.TID 0000.0001) %MON obc_N_vVel_min               =   1.4730106333906E-05
(PID.TID 0000.0001) %MON obc_N_vVel_mean              =   1.4730106333906E-05
(PID.TID 0000.0001) %MON obc_N_vVel_sd                =   3.1341298272514E-12
(PID.TID 0000.0001) %MON obc_N_vVel_Int               =   9.7218701803779E+02
(PID.TID 0000.0001) // =======================================================
(PID.TID 0000.0001) // End OBCS MONITOR field statistics
(PID.TID 0000.0001) // =======================================================
 cg2d: Sum(rhs),rhsMax =   4.51123860374474E+00  2.99914834822371E+02
(PID.TID 0000.0001)      cg2d_init_res =   6.01249114808189E-06
(PID.TID 0000.0001)      cg2d_iters(min,last) =      -1      78
(PID.TID 0000.0001)      cg2d_last_res =   9.19696306122156E-12
(PID.TID 0000.0001) // =======================================================
(PID.TID 0000.0001) // Begin MONITOR dynamic field statistics
(PID.TID 0000.0001) // =======================================================
(PID.TID 0000.0001) %MON time_tsnumber                =                   795
(PID.TID 0000.0001) %MON time_secondsf                =   7.9500000000000E+04
(PID.TID 0000.0001) %MON dynstat_eta_max              =   5.7969160787102E+00
(PID.TID 0000.0001) %MON dynstat_eta_min              =  -1.4194566677340E+01
(PID.TID 0000.0001) %MON dynstat_eta_mean             =  -2.5055321864563E+00
(PID.TID 0000.0001) %MON dynstat_eta_sd               =   4.9504427189230E+00
(PID.TID 0000.0001) %MON dynstat_eta_del2             =   2.0714483525183E-01
(PID.TID 0000.0001) %MON dynstat_uvel_max             =   2.6220895247597E-03
(PID.TID 0000.0001) %MON dynstat_uvel_min             =  -1.1717532131556E-02
(PID.TID 0000.0001) %MON dynstat_uvel_mean            =  -1.1743275323807E-07
(PID.TID 0000.0001) %MON dynstat_uvel_sd              =   3.5281691695436E-04
(PID.TID 0000.0001) %MON dynstat_uvel_del2            =   5.7682741534656E-07
(PID.TID 0000.0001) %MON dynstat_vvel_max             =   9.5541197874076E-03
(PID.TID 0000.0001) %MON dynstat_vvel_min             =  -4.5960737343780E-03
(PID.TID 0000.0001) %MON dynstat_vvel_mean            =   1.4969067604894E-05
(PID.TID 0000.0001) %MON dynstat_vvel_sd              =   2.4203166790071E-04
(PID.TID 0000.0001) %MON dynstat_vvel_del2            =   5.1350809371226E-07
(PID.TID 0000.0001) %MON dynstat_wvel_max             =   4.3296192492423E-04
(PID.TID 0000.0001) %MON dynstat_wvel_min             =  -4.3916585478420E-04
(PID.TID 0000.0001) %MON dynstat_wvel_mean            =   6.6507996472191E-09
(PID.TID 0000.0001) %MON dynstat_wvel_sd              =   1.6480318434872E-05
(PID.TID 0000.0001) %MON dynstat_wvel_del2            =   6.5533729558348E-08
(PID.TID 0000.0001) %MON dynstat_theta_max            =   1.2000000000000E+00
(PID.TID 0000.0001) %MON dynstat_theta_min            =  -1.0000000000000E+00
(PID.TID 0000.0001) %MON dynstat_theta_mean           =   5.6890606030436E-01
(PID.TID 0000.0001) %MON dynstat_theta_sd             =   8.6847801929356E-01
(PID.TID 0000.0001) %MON dynstat_theta_del2           =   1.5977342355704E-06
(PID.TID 0000.0001) %MON dynstat_salt_max             =   3.4700000000000E+01
(PID.TID 0000.0001) %MON dynstat_salt_min             =   3.4000000000000E+01
(PID.TID 0000.0001) %MON dynstat_salt_mean            =   3.4499176594727E+01
(PID.TID 0000.0001) %MON dynstat_salt_sd              =   2.7632705120229E-01
(PID.TID 0000.0001) %MON dynstat_salt_del2            =   6.2258430337120E-07
(PID.TID 0000.0001) %MON advcfl_uvel_max              =   1.1717532131556E-03
(PID.TID 0000.0001) %MON advcfl_vvel_max              =   9.5541197874076E-04
(PID.TID 0000.0001) %MON advcfl_wvel_max              =   2.1958292739210E-03
(PID.TID 0000.0001) %MON advcfl_W_hf_max              =   2.1958292739210E-03
(PID.TID 0000.0001) %MON pe_b_mean                    =  -8.3036412492211E-01
(PID.TID 0000.0001) %MON ke_max                       =   4.0139233016400E-05
(PID.TID 0000.0001) %MON ke_mean                      =   9.0405103225693E-08
(PID.TID 0000.0001) %MON ke_vol                       =   4.2724972115760E+12
(PID.TID 0000.0001) // =======================================================
(PID.TID 0000.0001) // End MONITOR dynamic field statistics
(PID.TID 0000.0001) // =======================================================
(PID.TID 0000.0001) // =======================================================
(PID.TID 0000.0001) // Begin OBCS MONITOR field statistics
(PID.TID 0000.0001) // =======================================================
(PID.TID 0000.0001) %MON obc_N_vVel_max               =   1.4729590027037E-05
(PID.TID 0000.0001) %MON obc_N_vVel_min               =   1.4729590027037E-05
(PID.TID 0000.0001) %MON obc_N_vVel_mean              =   1.4729590027037E-05
(PID.TID 0000.0001) %MON obc_N_vVel_sd                =   1.8955383894232E-12
(PID.TID 0000.0001) %MON obc_N_vVel_Int               =   9.7215294178442E+02
(PID.TID 0000.0001) // =======================================================
(PID.TID 0000.0001) // End OBCS MONITOR field statistics
(PID.TID 0000.0001) // =======================================================
 cg2d: Sum(rhs),rhsMax =   4.51125951335834E+00  2.99914909979928E+02
(PID.TID 0000.0001)      cg2d_init_res =   6.00408838004349E-06
(PID.TID 0000.0001)      cg2d_iters(min,last) =      -1      78
(PID.TID 0000.0001)      cg2d_last_res =   9.20159943208811E-12
(PID.TID 0000.0001) // =======================================================
(PID.TID 0000.0001) // Begin MONITOR dynamic field statistics
(PID.TID 0000.0001) // =======================================================
(PID.TID 0000.0001) %MON time_tsnumber                =                   796
(PID.TID 0000.0001) %MON time_secondsf                =   7.9600000000000E+04
(PID.TID 0000.0001) %MON dynstat_eta_max              =   5.7969074225158E+00
(PID.TID 0000.0001) %MON dynstat_eta_min              =  -1.4194590749824E+01
(PID.TID 0000.0001) %MON dynstat_eta_mean             =  -2.5055444274907E+00
(PID.TID 0000.0001) %MON dynstat_eta_sd               =   4.9504468808634E+00
(PID.TID 0000.0001) %MON dynstat_eta_del2             =   2.0714485179871E-01
(PID.TID 0000.0001) %MON dynstat_uvel_max             =   2.6295514971224E-03
(PID.TID 0000.0001) %MON dynstat_uvel_min             =  -1.1751137298546E-02
(PID.TID 0000.0001) %MON dynstat_uvel_mean            =  -1.1743250903997E-07
(PID.TID 0000.0001) %MON dynstat_uvel_sd              =   3.5370125502681E-04
(PID.TID 0000.0001) %MON dynstat_uvel_del2            =   5.7795999474697E-07
(PID.TID 0000.0001) %MON dynstat_vvel_max             =   9.5803899317679E-03
(PID.TID 0000.0001) %MON dynstat_vvel_min             =  -4.6057479684292E-03
(PID.TID 0000.0001) %MON dynstat_vvel_mean            =   1.4968466865528E-05
(PID.TID 0000.0001) %MON dynstat_vvel_sd              =   2.4251446282246E-04
(PID.TID 0000.0001) %MON dynstat_vvel_del2            =   5.1391507599614E-07
(PID.TID 0000.0001) %MON dynstat_wvel_max             =   4.3435177294163E-04
(PID.TID 0000.0001) %MON dynstat_wvel_min             =  -4.4043494771247E-04
(PID.TID 0000.0001) %MON dynstat_wvel_mean            =   6.6500956460591E-09
(PID.TID 0000.0001) %MON dynstat_wvel_sd              =   1.6350388167825E-05
(PID.TID 0000.0001) %MON dynstat_wvel_del2            =   6.4349596002694E-08
(PID.TID 0000.0001) %MON dynstat_theta_max            =   1.2000000000000E+00
(PID.TID 0000.0001) %MON dynstat_theta_min            =  -1.0000000000000E+00
(PID.TID 0000.0001) %MON dynstat_theta_mean           =   5.6890556893524E-01
(PID.TID 0000.0001) %MON dynstat_theta_sd             =   8.6847774818761E-01
(PID.TID 0000.0001) %MON dynstat_theta_del2           =   1.6011992724357E-06
(PID.TID 0000.0001) %MON dynstat_salt_max             =   3.4700000000000E+01
(PID.TID 0000.0001) %MON dynstat_salt_min             =   3.4000000000000E+01
(PID.TID 0000.0001) %MON dynstat_salt_mean            =   3.4499176398281E+01
(PID.TID 0000.0001) %MON dynstat_salt_sd              =   2.7632694810008E-01
(PID.TID 0000.0001) %MON dynstat_salt_del2            =   6.2391357754559E-07
(PID.TID 0000.0001) %MON advcfl_uvel_max              =   1.1751137298546E-03
(PID.TID 0000.0001) %MON advcfl_vvel_max              =   9.5803899317679E-04
(PID.TID 0000.0001) %MON advcfl_wvel_max              =   2.2021747385624E-03
(PID.TID 0000.0001) %MON advcfl_W_hf_max              =   2.2021747385624E-03
(PID.TID 0000.0001) %MON pe_b_mean                    =  -8.3036752980798E-01
(PID.TID 0000.0001) %MON ke_max                       =   4.0387781446684E-05
(PID.TID 0000.0001) %MON ke_mean                      =   9.0828263550183E-08
(PID.TID 0000.0001) %MON ke_vol                       =   4.2724971388124E+12
(PID.TID 0000.0001) // =======================================================
(PID.TID 0000.0001) // End MONITOR dynamic field statistics
(PID.TID 0000.0001) // =======================================================
(PID.TID 0000.0001) // =======================================================
(PID.TID 0000.0001) // Begin OBCS MONITOR field statistics
(PID.TID 0000.0001) // =======================================================
(PID.TID 0000.0001) %MON obc_N_vVel_max               =   1.4729012059274E-05
(PID.TID 0000.0001) %MON obc_N_vVel_min               =   1.4729012059274E-05
(PID.TID 0000.0001) %MON obc_N_vVel_mean              =   1.4729012059274E-05
(PID.TID 0000.0001) %MON obc_N_vVel_sd                =   2.0273267296178E-12
(PID.TID 0000.0001) %MON obc_N_vVel_Int               =   9.7211479591210E+02
(PID.TID 0000.0001) // =======================================================
(PID.TID 0000.0001) // End OBCS MONITOR field statistics
(PID.TID 0000.0001) // =======================================================
 cg2d: Sum(rhs),rhsMax =   4.51128040763581E+00  2.99914985098921E+02
(PID.TID 0000.0001)      cg2d_init_res =   5.99397572375248E-06
(PID.TID 0000.0001)      cg2d_iters(min,last) =      -1      78
(PID.TID 0000.0001)      cg2d_last_res =   9.20457666429469E-12
(PID.TID 0000.0001) // =======================================================
(PID.TID 0000.0001) // Begin MONITOR dynamic field statistics
(PID.TID 0000.0001) // =======================================================
(PID.TID 0000.0001) %MON time_tsnumber                =                   797
(PID.TID 0000.0001) %MON time_secondsf                =   7.9700000000000E+04
(PID.TID 0000.0001) %MON dynstat_eta_max              =   5.7968987955698E+00
(PID.TID 0000.0001) %MON dynstat_eta_min              =  -1.4194614804780E+01
(PID.TID 0000.0001) %MON dynstat_eta_mean             =  -2.5055566596910E+00
(PID.TID 0000.0001) %MON dynstat_eta_sd               =   4.9504510404265E+00
(PID.TID 0000.0001) %MON dynstat_eta_del2             =   2.0714486838862E-01
(PID.TID 0000.0001) %MON dynstat_uvel_max             =   2.6370309536858E-03
(PID.TID 0000.0001) %MON dynstat_uvel_min             =  -1.1784818223703E-02
(PID.TID 0000.0001) %MON dynstat_uvel_mean            =  -1.1743189283994E-07
(PID.TID 0000.0001) %MON dynstat_uvel_sd              =   3.5458884531991E-04
(PID.TID 0000.0001) %MON dynstat_uvel_del2            =   5.7909598294510E-07
(PID.TID 0000.0001) %MON dynstat_vvel_max             =   9.6067122553061E-03
(PID.TID 0000.0001) %MON dynstat_vvel_min             =  -4.6154316908176E-03
(PID.TID 0000.0001) %MON dynstat_vvel_mean            =   1.4967781503851E-05
(PID.TID 0000.0001) %MON dynstat_vvel_sd              =   2.4299637260323E-04
(PID.TID 0000.0001) %MON dynstat_vvel_del2            =   5.1428820838215E-07
(PID.TID 0000.0001) %MON dynstat_wvel_max             =   4.3574499471339E-04
(PID.TID 0000.0001) %MON dynstat_wvel_min             =  -4.4170740966476E-04
(PID.TID 0000.0001) %MON dynstat_wvel_mean            =   6.6492271119189E-09
(PID.TID 0000.0001) %MON dynstat_wvel_sd              =   1.6207142393598E-05
(PID.TID 0000.0001) %MON dynstat_wvel_del2            =   6.3015725236652E-08
(PID.TID 0000.0001) %MON dynstat_theta_max            =   1.2000000000000E+00
(PID.TID 0000.0001) %MON dynstat_theta_min            =  -1.0000000000000E+00
(PID.TID 0000.0001) %MON dynstat_theta_mean           =   5.6890507648496E-01
(PID.TID 0000.0001) %MON dynstat_theta_sd             =   8.6847747663482E-01
(PID.TID 0000.0001) %MON dynstat_theta_del2           =   1.6046867840722E-06
(PID.TID 0000.0001) %MON dynstat_salt_max             =   3.4700000000000E+01
(PID.TID 0000.0001) %MON dynstat_salt_min             =   3.4000000000000E+01
(PID.TID 0000.0001) %MON dynstat_salt_mean            =   3.4499176201411E+01
(PID.TID 0000.0001) %MON dynstat_salt_sd              =   2.7632684481556E-01
(PID.TID 0000.0001) %MON dynstat_salt_del2            =   6.2524977768185E-07
(PID.TID 0000.0001) %MON advcfl_uvel_max              =   1.1784818223703E-03
(PID.TID 0000.0001) %MON advcfl_vvel_max              =   9.6067122553061E-04
(PID.TID 0000.0001) %MON advcfl_wvel_max              =   2.2085370483238E-03
(PID.TID 0000.0001) %MON advcfl_W_hf_max              =   2.2085370483238E-03
(PID.TID 0000.0001) %MON pe_b_mean                    =  -8.3037093170545E-01
(PID.TID 0000.0001) %MON ke_max                       =   4.0637759690402E-05
(PID.TID 0000.0001) %MON ke_mean                      =   9.1253337528664E-08
(PID.TID 0000.0001) %MON ke_vol                       =   4.2724970661007E+12
(PID.TID 0000.0001) // =======================================================
(PID.TID 0000.0001) // End MONITOR dynamic field statistics
(PID.TID 0000.0001) // =======================================================
(PID.TID 0000.0001) // =======================================================
(PID.TID 0000.0001) // Begin OBCS MONITOR field statistics
(PID.TID 0000.0001) // =======================================================
(PID.TID 0000.0001) %MON obc_N_vVel_max               =   1.4728364035013E-05
(PID.TID 0000.0001) %MON obc_N_vVel_min               =   1.4728364035013E-05
(PID.TID 0000.0001) %MON obc_N_vVel_mean              =   1.4728364035013E-05
(PID.TID 0000.0001) %MON obc_N_vVel_sd                =  -1.7913630140602E-23
(PID.TID 0000.0001) %MON obc_N_vVel_Int               =   9.7207202631087E+02
(PID.TID 0000.0001) // =======================================================
(PID.TID 0000.0001) // End OBCS MONITOR field statistics
(PID.TID 0000.0001) // =======================================================
 cg2d: Sum(rhs),rhsMax =   4.51130128638599E+00  2.99915060178075E+02
(PID.TID 0000.0001)      cg2d_init_res =   5.98315073630070E-06
(PID.TID 0000.0001)      cg2d_iters(min,last) =      -1      78
(PID.TID 0000.0001)      cg2d_last_res =   9.20636511307714E-12
(PID.TID 0000.0001) // =======================================================
(PID.TID 0000.0001) // Begin MONITOR dynamic field statistics
(PID.TID 0000.0001) // =======================================================
(PID.TID 0000.0001) %MON time_tsnumber                =                   798
(PID.TID 0000.0001) %MON time_secondsf                =   7.9800000000000E+04
(PID.TID 0000.0001) %MON dynstat_eta_max              =   5.7968901939399E+00
(PID.TID 0000.0001) %MON dynstat_eta_min              =  -1.4194638841993E+01
(PID.TID 0000.0001) %MON dynstat_eta_mean             =  -2.5055688829405E+00
(PID.TID 0000.0001) %MON dynstat_eta_sd               =   4.9504551975697E+00
(PID.TID 0000.0001) %MON dynstat_eta_del2             =   2.0714488502160E-01
(PID.TID 0000.0001) %MON dynstat_uvel_max             =   2.6445279262930E-03
(PID.TID 0000.0001) %MON dynstat_uvel_min             =  -1.1818574919715E-02
(PID.TID 0000.0001) %MON dynstat_uvel_mean            =  -1.1743095356325E-07
(PID.TID 0000.0001) %MON dynstat_uvel_sd              =   3.5547969856144E-04
(PID.TID 0000.0001) %MON dynstat_uvel_del2            =   5.8023542431346E-07
(PID.TID 0000.0001) %MON dynstat_vvel_max             =   9.6330867977676E-03
(PID.TID 0000.0001) %MON dynstat_vvel_min             =  -4.6251249326881E-03
(PID.TID 0000.0001) %MON dynstat_vvel_mean            =   1.4967003511349E-05
(PID.TID 0000.0001) %MON dynstat_vvel_sd              =   2.4347998502735E-04
(PID.TID 0000.0001) %MON dynstat_vvel_del2            =   5.1467056942751E-07
(PID.TID 0000.0001) %MON dynstat_wvel_max             =   4.3714159699724E-04
(PID.TID 0000.0001) %MON dynstat_wvel_min             =  -4.4298324763232E-04
(PID.TID 0000.0001) %MON dynstat_wvel_mean            =   6.6481930321350E-09
(PID.TID 0000.0001) %MON dynstat_wvel_sd              =   1.6062803544324E-05
(PID.TID 0000.0001) %MON dynstat_wvel_del2            =   6.1645475166767E-08
(PID.TID 0000.0001) %MON dynstat_theta_max            =   1.2000000000000E+00
(PID.TID 0000.0001) %MON dynstat_theta_min            =  -1.0000000000000E+00
(PID.TID 0000.0001) %MON dynstat_theta_mean           =   5.6890458295736E-01
(PID.TID 0000.0001) %MON dynstat_theta_sd             =   8.6847720464212E-01
(PID.TID 0000.0001) %MON dynstat_theta_del2           =   1.6081480493451E-06
(PID.TID 0000.0001) %MON dynstat_salt_max             =   3.4700000000000E+01
(PID.TID 0000.0001) %MON dynstat_salt_min             =   3.4000000000000E+01
(PID.TID 0000.0001) %MON dynstat_salt_mean            =   3.4499176004118E+01
(PID.TID 0000.0001) %MON dynstat_salt_sd              =   2.7632674135107E-01
(PID.TID 0000.0001) %MON dynstat_salt_del2            =   6.2658023078789E-07
(PID.TID 0000.0001) %MON advcfl_uvel_max              =   1.1818574919715E-03
(PID.TID 0000.0001) %MON advcfl_vvel_max              =   9.6330867977676E-04
(PID.TID 0000.0001) %MON advcfl_wvel_max              =   2.2149162381616E-03
(PID.TID 0000.0001) %MON advcfl_W_hf_max              =   2.2149162381616E-03
(PID.TID 0000.0001) %MON pe_b_mean                    =  -8.3037433058029E-01
(PID.TID 0000.0001) %MON ke_max                       =   4.0889174615245E-05
(PID.TID 0000.0001) %MON ke_mean                      =   9.1680966004169E-08
(PID.TID 0000.0001) %MON ke_vol                       =   4.2724969934414E+12
(PID.TID 0000.0001) // =======================================================
(PID.TID 0000.0001) // End MONITOR dynamic field statistics
(PID.TID 0000.0001) // =======================================================
(PID.TID 0000.0001) // =======================================================
(PID.TID 0000.0001) // Begin OBCS MONITOR field statistics
(PID.TID 0000.0001) // =======================================================
(PID.TID 0000.0001) %MON obc_N_vVel_max               =   1.4727638547724E-05
(PID.TID 0000.0001) %MON obc_N_vVel_min               =   1.4727638547723E-05
(PID.TID 0000.0001) %MON obc_N_vVel_mean              =   1.4727638547723E-05
(PID.TID 0000.0001) %MON obc_N_vVel_sd                =   3.6873813633581E-12
(PID.TID 0000.0001) %MON obc_N_vVel_Int               =   9.7202414414975E+02
(PID.TID 0000.0001) // =======================================================
(PID.TID 0000.0001) // End OBCS MONITOR field statistics
(PID.TID 0000.0001) // =======================================================
 cg2d: Sum(rhs),rhsMax =   4.51132214940230E+00  2.99915135216278E+02
(PID.TID 0000.0001)      cg2d_init_res =   5.97266968543317E-06
(PID.TID 0000.0001)      cg2d_iters(min,last) =      -1      78
(PID.TID 0000.0001)      cg2d_last_res =   9.20791219601200E-12
(PID.TID 0000.0001) // =======================================================
(PID.TID 0000.0001) // Begin MONITOR dynamic field statistics
(PID.TID 0000.0001) // =======================================================
(PID.TID 0000.0001) %MON time_tsnumber                =                   799
(PID.TID 0000.0001) %MON time_secondsf                =   7.9900000000000E+04
(PID.TID 0000.0001) %MON dynstat_eta_max              =   5.7968816179494E+00
(PID.TID 0000.0001) %MON dynstat_eta_min              =  -1.4194662861260E+01
(PID.TID 0000.0001) %MON dynstat_eta_mean             =  -2.5055810971152E+00
(PID.TID 0000.0001) %MON dynstat_eta_sd               =   4.9504593522505E+00
(PID.TID 0000.0001) %MON dynstat_eta_del2             =   2.0714490169785E-01
(PID.TID 0000.0001) %MON dynstat_uvel_max             =   2.6520424465772E-03
(PID.TID 0000.0001) %MON dynstat_uvel_min             =  -1.1852407398401E-02
(PID.TID 0000.0001) %MON dynstat_uvel_mean            =  -1.1742976383320E-07
(PID.TID 0000.0001) %MON dynstat_uvel_sd              =   3.5637382452632E-04
(PID.TID 0000.0001) %MON dynstat_uvel_del2            =   5.8137835985916E-07
(PID.TID 0000.0001) %MON dynstat_vvel_max             =   9.6595135987143E-03
(PID.TID 0000.0001) %MON dynstat_vvel_min             =  -4.6348277249768E-03
(PID.TID 0000.0001) %MON dynstat_vvel_mean            =   1.4966126442042E-05
(PID.TID 0000.0001) %MON dynstat_vvel_sd              =   2.4396782309881E-04
(PID.TID 0000.0001) %MON dynstat_vvel_del2            =   5.1510384478029E-07
(PID.TID 0000.0001) %MON dynstat_wvel_max             =   4.3854158653500E-04
(PID.TID 0000.0001) %MON dynstat_wvel_min             =  -4.4426246861640E-04
(PID.TID 0000.0001) %MON dynstat_wvel_mean            =   6.6469957270382E-09
(PID.TID 0000.0001) %MON dynstat_wvel_sd              =   1.5929727187433E-05
(PID.TID 0000.0001) %MON dynstat_wvel_del2            =   6.0360707013113E-08
(PID.TID 0000.0001) %MON dynstat_theta_max            =   1.2000000000000E+00
(PID.TID 0000.0001) %MON dynstat_theta_min            =  -1.0000000000000E+00
(PID.TID 0000.0001) %MON dynstat_theta_mean           =   5.6890408835849E-01
(PID.TID 0000.0001) %MON dynstat_theta_sd             =   8.6847693221138E-01
(PID.TID 0000.0001) %MON dynstat_theta_del2           =   1.6115375799219E-06
(PID.TID 0000.0001) %MON dynstat_salt_max             =   3.4700000000000E+01
(PID.TID 0000.0001) %MON dynstat_salt_min             =   3.4000000000000E+01
(PID.TID 0000.0001) %MON dynstat_salt_mean            =   3.4499175806403E+01
(PID.TID 0000.0001) %MON dynstat_salt_sd              =   2.7632663770693E-01
(PID.TID 0000.0001) %MON dynstat_salt_del2            =   6.2789312516639E-07
(PID.TID 0000.0001) %MON advcfl_uvel_max              =   1.1852407398401E-03
(PID.TID 0000.0001) %MON advcfl_vvel_max              =   9.6595135987143E-04
(PID.TID 0000.0001) %MON advcfl_wvel_max              =   2.2213123430820E-03
(PID.TID 0000.0001) %MON advcfl_W_hf_max              =   2.2213123430820E-03
(PID.TID 0000.0001) %MON pe_b_mean                    =  -8.3037772639662E-01
(PID.TID 0000.0001) %MON ke_max                       =   4.1142033108675E-05
(PID.TID 0000.0001) %MON ke_mean                      =   9.2111778787846E-08
(PID.TID 0000.0001) %MON ke_vol                       =   4.2724969208353E+12
(PID.TID 0000.0001) // =======================================================
(PID.TID 0000.0001) // End MONITOR dynamic field statistics
(PID.TID 0000.0001) // =======================================================
(PID.TID 0000.0001) // =======================================================
(PID.TID 0000.0001) // Begin OBCS MONITOR field statistics
(PID.TID 0000.0001) // =======================================================
(PID.TID 0000.0001) %MON obc_N_vVel_max               =   1.4726829375596E-05
(PID.TID 0000.0001) %MON obc_N_vVel_min               =   1.4726829375595E-05
(PID.TID 0000.0001) %MON obc_N_vVel_mean              =   1.4726829375596E-05
(PID.TID 0000.0001) %MON obc_N_vVel_sd                =  -1.7396642257756E-23
(PID.TID 0000.0001) %MON obc_N_vVel_Int               =   9.7197073878930E+02
(PID.TID 0000.0001) // =======================================================
(PID.TID 0000.0001) // End OBCS MONITOR field statistics
(PID.TID 0000.0001) // =======================================================
 cg2d: Sum(rhs),rhsMax =   4.51134299646628E+00  2.99915210212587E+02
(PID.TID 0000.0001)      cg2d_init_res =   5.96355391770997E-06
(PID.TID 0000.0001)      cg2d_iters(min,last) =      -1      78
(PID.TID 0000.0001)      cg2d_last_res =   9.20987262475196E-12
(PID.TID 0000.0001) // =======================================================
(PID.TID 0000.0001) // Begin MONITOR dynamic field statistics
(PID.TID 0000.0001) // =======================================================
(PID.TID 0000.0001) %MON time_tsnumber                =                   800
(PID.TID 0000.0001) %MON time_secondsf                =   8.0000000000000E+04
(PID.TID 0000.0001) %MON dynstat_eta_max              =   5.7968730678985E+00
(PID.TID 0000.0001) %MON dynstat_eta_min              =  -1.4194686862351E+01
(PID.TID 0000.0001) %MON dynstat_eta_mean             =  -2.5055933020857E+00
(PID.TID 0000.0001) %MON dynstat_eta_sd               =   4.9504635044230E+00
(PID.TID 0000.0001) %MON dynstat_eta_del2             =   2.0714491841743E-01
(PID.TID 0000.0001) %MON dynstat_uvel_max             =   2.6595745459481E-03
(PID.TID 0000.0001) %MON dynstat_uvel_min             =  -1.1886315670836E-02
(PID.TID 0000.0001) %MON dynstat_uvel_mean            =  -1.1742841492327E-07
(PID.TID 0000.0001) %MON dynstat_uvel_sd              =   3.5727123199224E-04
(PID.TID 0000.0001) %MON dynstat_uvel_del2            =   5.8252482936038E-07
(PID.TID 0000.0001) %MON dynstat_vvel_max             =   9.6859926976394E-03
(PID.TID 0000.0001) %MON dynstat_vvel_min             =  -4.6445400983011E-03
(PID.TID 0000.0001) %MON dynstat_vvel_mean            =   1.4965145570562E-05
(PID.TID 0000.0001) %MON dynstat_vvel_sd              =   2.4446211796991E-04
(PID.TID 0000.0001) %MON dynstat_vvel_del2            =   5.1562454837453E-07
(PID.TID 0000.0001) %MON dynstat_wvel_max             =   4.3994497004941E-04
(PID.TID 0000.0001) %MON dynstat_wvel_min             =  -4.4554507963404E-04
(PID.TID 0000.0001) %MON dynstat_wvel_mean            =   6.6456411135715E-09
(PID.TID 0000.0001) %MON dynstat_wvel_sd              =   1.5819245603599E-05
(PID.TID 0000.0001) %MON dynstat_wvel_del2            =   5.9280668022860E-08
(PID.TID 0000.0001) %MON dynstat_theta_max            =   1.2000000000000E+00
(PID.TID 0000.0001) %MON dynstat_theta_min            =  -1.0000000000000E+00
(PID.TID 0000.0001) %MON dynstat_theta_mean           =   5.6890359269646E-01
(PID.TID 0000.0001) %MON dynstat_theta_sd             =   8.6847665933733E-01
(PID.TID 0000.0001) %MON dynstat_theta_del2           =   1.6148168691410E-06
(PID.TID 0000.0001) %MON dynstat_salt_max             =   3.4700000000000E+01
(PID.TID 0000.0001) %MON dynstat_salt_min             =   3.4000000000000E+01
(PID.TID 0000.0001) %MON dynstat_salt_mean            =   3.4499175608270E+01
(PID.TID 0000.0001) %MON dynstat_salt_sd              =   2.7632653388139E-01
(PID.TID 0000.0001) %MON dynstat_salt_del2            =   6.2917845168499E-07
(PID.TID 0000.0001) %MON advcfl_uvel_max              =   1.1886315670836E-03
(PID.TID 0000.0001) %MON advcfl_vvel_max              =   9.6859926976394E-04
(PID.TID 0000.0001) %MON advcfl_wvel_max              =   2.2277253981702E-03
(PID.TID 0000.0001) %MON advcfl_W_hf_max              =   2.2277253981702E-03
(PID.TID 0000.0001) %MON pe_b_mean                    =  -8.3038111911739E-01
(PID.TID 0000.0001) %MON ke_max                       =   4.1396342078817E-05
(PID.TID 0000.0001) %MON ke_mean                      =   9.2546339053931E-08
(PID.TID 0000.0001) %MON ke_vol                       =   4.2724968482831E+12
(PID.TID 0000.0001) // =======================================================
(PID.TID 0000.0001) // End MONITOR dynamic field statistics
(PID.TID 0000.0001) // =======================================================
(PID.TID 0000.0001) // =======================================================
(PID.TID 0000.0001) // Begin OBCS MONITOR field statistics
(PID.TID 0000.0001) // =======================================================
(PID.TID 0000.0001) %MON obc_N_vVel_max               =   1.4725931679603E-05
(PID.TID 0000.0001) %MON obc_N_vVel_min               =   1.4725931679602E-05
(PID.TID 0000.0001) %MON obc_N_vVel_mean              =   1.4725931679603E-05
(PID.TID 0000.0001) %MON obc_N_vVel_sd                =  -2.0162527430980E-23
(PID.TID 0000.0001) %MON obc_N_vVel_Int               =   9.7191149085380E+02
(PID.TID 0000.0001) // =======================================================
(PID.TID 0000.0001) // End OBCS MONITOR field statistics
(PID.TID 0000.0001) // =======================================================
 cg2d: Sum(rhs),rhsMax =   4.51136382734614E+00  2.99915285166219E+02
(PID.TID 0000.0001)      cg2d_init_res =   5.95667182213743E-06
(PID.TID 0000.0001)      cg2d_iters(min,last) =      -1      78
(PID.TID 0000.0001)      cg2d_last_res =   9.21288941900971E-12
(PID.TID 0000.0001) // =======================================================
(PID.TID 0000.0001) // Begin MONITOR dynamic field statistics
(PID.TID 0000.0001) // =======================================================
(PID.TID 0000.0001) %MON time_tsnumber                =                   801
(PID.TID 0000.0001) %MON time_secondsf                =   8.0100000000000E+04
(PID.TID 0000.0001) %MON dynstat_eta_max              =   5.7968645440744E+00
(PID.TID 0000.0001) %MON dynstat_eta_min              =  -1.4194710845037E+01
(PID.TID 0000.0001) %MON dynstat_eta_mean             =  -2.5056054977168E+00
(PID.TID 0000.0001) %MON dynstat_eta_sd               =   4.9504676540396E+00
(PID.TID 0000.0001) %MON dynstat_eta_del2             =   2.0714493518036E-01
(PID.TID 0000.0001) %MON dynstat_uvel_max             =   2.6671242556233E-03
(PID.TID 0000.0001) %MON dynstat_uvel_min             =  -1.1920299747452E-02
(PID.TID 0000.0001) %MON dynstat_uvel_mean            =  -1.1742701906862E-07
(PID.TID 0000.0001) %MON dynstat_uvel_sd              =   3.5817192869715E-04
(PID.TID 0000.0001) %MON dynstat_uvel_del2            =   5.8367487286656E-07
(PID.TID 0000.0001) %MON dynstat_vvel_max             =   9.7125241338554E-03
(PID.TID 0000.0001) %MON dynstat_vvel_min             =  -4.6542620831662E-03
(PID.TID 0000.0001) %MON dynstat_vvel_mean            =   1.4964057990468E-05
(PID.TID 0000.0001) %MON dynstat_vvel_sd              =   2.4496461349313E-04
(PID.TID 0000.0001) %MON dynstat_vvel_del2            =   5.1626075418634E-07
(PID.TID 0000.0001) %MON dynstat_wvel_max             =   4.4135175423960E-04
(PID.TID 0000.0001) %MON dynstat_wvel_min             =  -4.4683108762552E-04
(PID.TID 0000.0001) %MON dynstat_wvel_mean            =   6.6441383602332E-09
(PID.TID 0000.0001) %MON dynstat_wvel_sd              =   1.5740528813170E-05
(PID.TID 0000.0001) %MON dynstat_wvel_del2            =   5.8508469869226E-08
(PID.TID 0000.0001) %MON dynstat_theta_max            =   1.2000000000000E+00
(PID.TID 0000.0001) %MON dynstat_theta_min            =  -1.0000000000000E+00
(PID.TID 0000.0001) %MON dynstat_theta_mean           =   5.6890309598085E-01
(PID.TID 0000.0001) %MON dynstat_theta_sd             =   8.6847638600144E-01
(PID.TID 0000.0001) %MON dynstat_theta_del2           =   1.6179575612067E-06
(PID.TID 0000.0001) %MON dynstat_salt_max             =   3.4700000000000E+01
(PID.TID 0000.0001) %MON dynstat_salt_min             =   3.4000000000000E+01
(PID.TID 0000.0001) %MON dynstat_salt_mean            =   3.4499175409720E+01
(PID.TID 0000.0001) %MON dynstat_salt_sd              =   2.7632642986852E-01
(PID.TID 0000.0001) %MON dynstat_salt_del2            =   6.3042886379146E-07
(PID.TID 0000.0001) %MON advcfl_uvel_max              =   1.1920299747452E-03
(PID.TID 0000.0001) %MON advcfl_vvel_max              =   9.7125241338554E-04
(PID.TID 0000.0001) %MON advcfl_wvel_max              =   2.2341554381276E-03
(PID.TID 0000.0001) %MON advcfl_W_hf_max              =   2.2341554381276E-03
(PID.TID 0000.0001) %MON pe_b_mean                    =  -8.3038450870428E-01
(PID.TID 0000.0001) %MON ke_max                       =   4.1652108454195E-05
(PID.TID 0000.0001) %MON ke_mean                      =   9.2985094852774E-08
(PID.TID 0000.0001) %MON ke_vol                       =   4.2724967757856E+12
(PID.TID 0000.0001) // =======================================================
(PID.TID 0000.0001) // End MONITOR dynamic field statistics
(PID.TID 0000.0001) // =======================================================
(PID.TID 0000.0001) // =======================================================
(PID.TID 0000.0001) // Begin OBCS MONITOR field statistics
(PID.TID 0000.0001) // =======================================================
(PID.TID 0000.0001) %MON obc_N_vVel_max               =   1.4724942098565E-05
(PID.TID 0000.0001) %MON obc_N_vVel_min               =   1.4724942098565E-05
(PID.TID 0000.0001) %MON obc_N_vVel_mean              =   1.4724942098565E-05
(PID.TID 0000.0001) %MON obc_N_vVel_sd                =   2.9689465139201E-12
(PID.TID 0000.0001) %MON obc_N_vVel_Int               =   9.7184617850526E+02
(PID.TID 0000.0001) // =======================================================
(PID.TID 0000.0001) // End OBCS MONITOR field statistics
(PID.TID 0000.0001) // =======================================================
 cg2d: Sum(rhs),rhsMax =   4.51138464179578E+00  2.99915360076554E+02
(PID.TID 0000.0001)      cg2d_init_res =   5.95267782549871E-06
(PID.TID 0000.0001)      cg2d_iters(min,last) =      -1      78
(PID.TID 0000.0001)      cg2d_last_res =   9.21752471101147E-12
(PID.TID 0000.0001) // =======================================================
(PID.TID 0000.0001) // Begin MONITOR dynamic field statistics
(PID.TID 0000.0001) // =======================================================
(PID.TID 0000.0001) %MON time_tsnumber                =                   802
(PID.TID 0000.0001) %MON time_secondsf                =   8.0200000000000E+04
(PID.TID 0000.0001) %MON dynstat_eta_max              =   5.7968560467633E+00
(PID.TID 0000.0001) %MON dynstat_eta_min              =  -1.4194734809096E+01
(PID.TID 0000.0001) %MON dynstat_eta_mean             =  -2.5056176838667E+00
(PID.TID 0000.0001) %MON dynstat_eta_sd               =   4.9504718010542E+00
(PID.TID 0000.0001) %MON dynstat_eta_del2             =   2.0714495198667E-01
(PID.TID 0000.0001) %MON dynstat_uvel_max             =   2.6746916065541E-03
(PID.TID 0000.0001) %MON dynstat_uvel_min             =  -1.1954359637826E-02
(PID.TID 0000.0001) %MON dynstat_uvel_mean            =  -1.1742569876187E-07
(PID.TID 0000.0001) %MON dynstat_uvel_sd              =   3.5907592133714E-04
(PID.TID 0000.0001) %MON dynstat_uvel_del2            =   5.8482853233516E-07
(PID.TID 0000.0001) %MON dynstat_vvel_max             =   9.7391079466278E-03
(PID.TID 0000.0001) %MON dynstat_vvel_min             =  -4.6639937096806E-03
(PID.TID 0000.0001) %MON dynstat_vvel_mean            =   1.4962862651214E-05
(PID.TID 0000.0001) %MON dynstat_vvel_sd              =   2.4547641960806E-04
(PID.TID 0000.0001) %MON dynstat_vvel_del2            =   5.1702964931124E-07
(PID.TID 0000.0001) %MON dynstat_wvel_max             =   4.4276194579865E-04
(PID.TID 0000.0001) %MON dynstat_wvel_min             =  -4.4812049955909E-04
(PID.TID 0000.0001) %MON dynstat_wvel_mean            =   6.6424996272961E-09
(PID.TID 0000.0001) %MON dynstat_wvel_sd              =   1.5699613401903E-05
(PID.TID 0000.0001) %MON dynstat_wvel_del2            =   5.8117108959442E-08
(PID.TID 0000.0001) %MON dynstat_theta_max            =   1.2000000000000E+00
(PID.TID 0000.0001) %MON dynstat_theta_min            =  -1.0000000000000E+00
(PID.TID 0000.0001) %MON dynstat_theta_mean           =   5.6890259822203E-01
(PID.TID 0000.0001) %MON dynstat_theta_sd             =   8.6847611217769E-01
(PID.TID 0000.0001) %MON dynstat_theta_del2           =   1.6209436008766E-06
(PID.TID 0000.0001) %MON dynstat_salt_max             =   3.4700000000000E+01
(PID.TID 0000.0001) %MON dynstat_salt_min             =   3.4000000000000E+01
(PID.TID 0000.0001) %MON dynstat_salt_mean            =   3.4499175210756E+01
(PID.TID 0000.0001) %MON dynstat_salt_sd              =   2.7632632565965E-01
(PID.TID 0000.0001) %MON dynstat_salt_del2            =   6.3164014993637E-07
(PID.TID 0000.0001) %MON advcfl_uvel_max              =   1.1954359637826E-03
(PID.TID 0000.0001) %MON advcfl_vvel_max              =   9.7391079466278E-04
(PID.TID 0000.0001) %MON advcfl_wvel_max              =   2.2406024977955E-03
(PID.TID 0000.0001) %MON advcfl_W_hf_max              =   2.2406024977955E-03
(PID.TID 0000.0001) %MON pe_b_mean                    =  -8.3038789511746E-01
(PID.TID 0000.0001) %MON ke_max                       =   4.1909339183347E-05
(PID.TID 0000.0001) %MON ke_mean                      =   9.3428342038431E-08
(PID.TID 0000.0001) %MON ke_vol                       =   4.2724967033436E+12
(PID.TID 0000.0001) // =======================================================
(PID.TID 0000.0001) // End MONITOR dynamic field statistics
(PID.TID 0000.0001) // =======================================================
(PID.TID 0000.0001) // =======================================================
(PID.TID 0000.0001) // Begin OBCS MONITOR field statistics
(PID.TID 0000.0001) // =======================================================
(PID.TID 0000.0001) %MON obc_N_vVel_max               =   1.4723858820815E-05
(PID.TID 0000.0001) %MON obc_N_vVel_min               =   1.4723858820814E-05
(PID.TID 0000.0001) %MON obc_N_vVel_mean              =   1.4723858820815E-05
(PID.TID 0000.0001) %MON obc_N_vVel_sd                =  -1.6543612251061E-23
(PID.TID 0000.0001) %MON obc_N_vVel_Int               =   9.7177468217377E+02
(PID.TID 0000.0001) // =======================================================
(PID.TID 0000.0001) // End OBCS MONITOR field statistics
(PID.TID 0000.0001) // =======================================================
 cg2d: Sum(rhs),rhsMax =   4.51140543958054E+00  2.99915434943118E+02
(PID.TID 0000.0001)      cg2d_init_res =   5.95196032466772E-06
(PID.TID 0000.0001)      cg2d_iters(min,last) =      -1      78
(PID.TID 0000.0001)      cg2d_last_res =   9.22415309285205E-12
(PID.TID 0000.0001) // =======================================================
(PID.TID 0000.0001) // Begin MONITOR dynamic field statistics
(PID.TID 0000.0001) // =======================================================
(PID.TID 0000.0001) %MON time_tsnumber                =                   803
(PID.TID 0000.0001) %MON time_secondsf                =   8.0300000000000E+04
(PID.TID 0000.0001) %MON dynstat_eta_max              =   5.7968475762467E+00
(PID.TID 0000.0001) %MON dynstat_eta_min              =  -1.4194758754301E+01
(PID.TID 0000.0001) %MON dynstat_eta_mean             =  -2.5056298604010E+00
(PID.TID 0000.0001) %MON dynstat_eta_sd               =   4.9504759454249E+00
(PID.TID 0000.0001) %MON dynstat_eta_del2             =   2.0714496883647E-01
(PID.TID 0000.0001) %MON dynstat_uvel_max             =   2.6822766293328E-03
(PID.TID 0000.0001) %MON dynstat_uvel_min             =  -1.1988495350796E-02
(PID.TID 0000.0001) %MON dynstat_uvel_mean            =  -1.1742456750381E-07
(PID.TID 0000.0001) %MON dynstat_uvel_sd              =   3.5998321543831E-04
(PID.TID 0000.0001) %MON dynstat_uvel_del2            =   5.8598585120394E-07
(PID.TID 0000.0001) %MON dynstat_vvel_max             =   9.7657441752212E-03
(PID.TID 0000.0001) %MON dynstat_vvel_min             =  -4.6737350076329E-03
(PID.TID 0000.0001) %MON dynstat_vvel_mean            =   1.4961560355550E-05
(PID.TID 0000.0001) %MON dynstat_vvel_sd              =   2.4599792694583E-04
(PID.TID 0000.0001) %MON dynstat_vvel_del2            =   5.1793613918543E-07
(PID.TID 0000.0001) %MON dynstat_wvel_max             =   4.4417555138230E-04
(PID.TID 0000.0001) %MON dynstat_wvel_min             =  -4.4941332239264E-04
(PID.TID 0000.0001) %MON dynstat_wvel_mean            =   6.6407395361560E-09
(PID.TID 0000.0001) %MON dynstat_wvel_sd              =   1.5698754701712E-05
(PID.TID 0000.0001) %MON dynstat_wvel_del2            =   5.8138264259525E-08
(PID.TID 0000.0001) %MON dynstat_theta_max            =   1.2000000000000E+00
(PID.TID 0000.0001) %MON dynstat_theta_min            =  -1.0000000000000E+00
(PID.TID 0000.0001) %MON dynstat_theta_mean           =   5.6890209943238E-01
(PID.TID 0000.0001) %MON dynstat_theta_sd             =   8.6847583784398E-01
(PID.TID 0000.0001) %MON dynstat_theta_del2           =   1.6237721047623E-06
(PID.TID 0000.0001) %MON dynstat_salt_max             =   3.4700000000000E+01
(PID.TID 0000.0001) %MON dynstat_salt_min             =   3.4000000000000E+01
(PID.TID 0000.0001) %MON dynstat_salt_mean            =   3.4499175011383E+01
(PID.TID 0000.0001) %MON dynstat_salt_sd              =   2.7632622124782E-01
(PID.TID 0000.0001) %MON dynstat_salt_del2            =   6.3281162142020E-07
(PID.TID 0000.0001) %MON advcfl_uvel_max              =   1.1988495350796E-03
(PID.TID 0000.0001) %MON advcfl_vvel_max              =   9.7657441752212E-04
(PID.TID 0000.0001) %MON advcfl_wvel_max              =   2.2470666119632E-03
(PID.TID 0000.0001) %MON advcfl_W_hf_max              =   2.2470666119632E-03
(PID.TID 0000.0001) %MON pe_b_mean                    =  -8.3039127831988E-01
(PID.TID 0000.0001) %MON ke_max                       =   4.2168041233948E-05
(PID.TID 0000.0001) %MON ke_mean                      =   9.3876201715050E-08
(PID.TID 0000.0001) %MON ke_vol                       =   4.2724966309578E+12
(PID.TID 0000.0001) // =======================================================
(PID.TID 0000.0001) // End MONITOR dynamic field statistics
(PID.TID 0000.0001) // =======================================================
(PID.TID 0000.0001) // =======================================================
(PID.TID 0000.0001) // Begin OBCS MONITOR field statistics
(PID.TID 0000.0001) // =======================================================
(PID.TID 0000.0001) %MON obc_N_vVel_max               =   1.4722681602851E-05
(PID.TID 0000.0001) %MON obc_N_vVel_min               =   1.4722681602851E-05
(PID.TID 0000.0001) %MON obc_N_vVel_mean              =   1.4722681602851E-05
(PID.TID 0000.0001) %MON obc_N_vVel_sd                =   1.9691137908568E-12
(PID.TID 0000.0001) %MON obc_N_vVel_Int               =   9.7169698578815E+02
(PID.TID 0000.0001) // =======================================================
(PID.TID 0000.0001) // End OBCS MONITOR field statistics
(PID.TID 0000.0001) // =======================================================
 cg2d: Sum(rhs),rhsMax =   4.51142622046113E+00  2.99915509765581E+02
(PID.TID 0000.0001)      cg2d_init_res =   5.95460676242551E-06
(PID.TID 0000.0001)      cg2d_iters(min,last) =      -1      78
(PID.TID 0000.0001)      cg2d_last_res =   9.23309822984723E-12
(PID.TID 0000.0001) // =======================================================
(PID.TID 0000.0001) // Begin MONITOR dynamic field statistics
(PID.TID 0000.0001) // =======================================================
(PID.TID 0000.0001) %MON time_tsnumber                =                   804
(PID.TID 0000.0001) %MON time_secondsf                =   8.0400000000000E+04
(PID.TID 0000.0001) %MON dynstat_eta_max              =   5.7968391328021E+00
(PID.TID 0000.0001) %MON dynstat_eta_min              =  -1.4194782680435E+01
(PID.TID 0000.0001) %MON dynstat_eta_mean             =  -2.5056420271841E+00
(PID.TID 0000.0001) %MON dynstat_eta_sd               =   4.9504800871089E+00
(PID.TID 0000.0001) %MON dynstat_eta_del2             =   2.0714498572971E-01
(PID.TID 0000.0001) %MON dynstat_uvel_max             =   2.6898793546870E-03
(PID.TID 0000.0001) %MON dynstat_uvel_min             =  -1.2022706894577E-02
(PID.TID 0000.0001) %MON dynstat_uvel_mean            =  -1.1742370764565E-07
(PID.TID 0000.0001) %MON dynstat_uvel_sd              =   3.6089381540822E-04
(PID.TID 0000.0001) %MON dynstat_uvel_del2            =   5.8714687385579E-07
(PID.TID 0000.0001) %MON dynstat_vvel_max             =   9.7924328586578E-03
(PID.TID 0000.0001) %MON dynstat_vvel_min             =  -4.6834860068694E-03
(PID.TID 0000.0001) %MON dynstat_vvel_mean            =   1.4960153722191E-05
(PID.TID 0000.0001) %MON dynstat_vvel_sd              =   2.4652878910038E-04
(PID.TID 0000.0001) %MON dynstat_vvel_del2            =   5.1897262934413E-07
(PID.TID 0000.0001) %MON dynstat_wvel_max             =   4.4559257764161E-04
(PID.TID 0000.0001) %MON dynstat_wvel_min             =  -4.5070956303494E-04
(PID.TID 0000.0001) %MON dynstat_wvel_mean            =   6.6388749397115E-09
(PID.TID 0000.0001) %MON dynstat_wvel_sd              =   1.5736219882240E-05
(PID.TID 0000.0001) %MON dynstat_wvel_del2            =   5.8557260368325E-08
(PID.TID 0000.0001) %MON dynstat_theta_max            =   1.2000000000000E+00
(PID.TID 0000.0001) %MON dynstat_theta_min            =  -1.0000000000000E+00
(PID.TID 0000.0001) %MON dynstat_theta_mean           =   5.6890159962460E-01
(PID.TID 0000.0001) %MON dynstat_theta_sd             =   8.6847556297153E-01
(PID.TID 0000.0001) %MON dynstat_theta_del2           =   1.6264533587011E-06
(PID.TID 0000.0001) %MON dynstat_salt_max             =   3.4700000000000E+01
(PID.TID 0000.0001) %MON dynstat_salt_min             =   3.4000000000000E+01
(PID.TID 0000.0001) %MON dynstat_salt_mean            =   3.4499174811603E+01
(PID.TID 0000.0001) %MON dynstat_salt_sd              =   2.7632611662368E-01
(PID.TID 0000.0001) %MON dynstat_salt_del2            =   6.3394596388970E-07
(PID.TID 0000.0001) %MON advcfl_uvel_max              =   1.2022706894577E-03
(PID.TID 0000.0001) %MON advcfl_vvel_max              =   9.7924328586578E-04
(PID.TID 0000.0001) %MON advcfl_wvel_max              =   2.2535478151747E-03
(PID.TID 0000.0001) %MON advcfl_W_hf_max              =   2.2535478151747E-03
(PID.TID 0000.0001) %MON pe_b_mean                    =  -8.3039465827451E-01
(PID.TID 0000.0001) %MON ke_max                       =   4.2428221596499E-05
(PID.TID 0000.0001) %MON ke_mean                      =   9.4328614074215E-08
(PID.TID 0000.0001) %MON ke_vol                       =   4.2724965586292E+12
(PID.TID 0000.0001) // =======================================================
(PID.TID 0000.0001) // End MONITOR dynamic field statistics
(PID.TID 0000.0001) // =======================================================
(PID.TID 0000.0001) // =======================================================
(PID.TID 0000.0001) // Begin OBCS MONITOR field statistics
(PID.TID 0000.0001) // =======================================================
(PID.TID 0000.0001) %MON obc_N_vVel_max               =   1.4721411737143E-05
(PID.TID 0000.0001) %MON obc_N_vVel_min               =   1.4721411737143E-05
(PID.TID 0000.0001) %MON obc_N_vVel_mean              =   1.4721411737143E-05
(PID.TID 0000.0001) %MON obc_N_vVel_sd                =   4.4206494965746E-12
(PID.TID 0000.0001) %MON obc_N_vVel_Int               =   9.7161317465141E+02
(PID.TID 0000.0001) // =======================================================
(PID.TID 0000.0001) // End OBCS MONITOR field statistics
(PID.TID 0000.0001) // =======================================================
 cg2d: Sum(rhs),rhsMax =   4.51144698419610E+00  2.99915584543741E+02
(PID.TID 0000.0001)      cg2d_init_res =   5.96035973398748E-06
(PID.TID 0000.0001)      cg2d_iters(min,last) =      -1      78
(PID.TID 0000.0001)      cg2d_last_res =   9.24437946276773E-12
(PID.TID 0000.0001) // =======================================================
(PID.TID 0000.0001) // Begin MONITOR dynamic field statistics
(PID.TID 0000.0001) // =======================================================
(PID.TID 0000.0001) %MON time_tsnumber                =                   805
(PID.TID 0000.0001) %MON time_secondsf                =   8.0500000000000E+04
(PID.TID 0000.0001) %MON dynstat_eta_max              =   5.7968307166979E+00
(PID.TID 0000.0001) %MON dynstat_eta_min              =  -1.4194806587295E+01
(PID.TID 0000.0001) %MON dynstat_eta_mean             =  -2.5056541840801E+00
(PID.TID 0000.0001) %MON dynstat_eta_sd               =   4.9504842260625E+00
(PID.TID 0000.0001) %MON dynstat_eta_del2             =   2.0714500266632E-01
(PID.TID 0000.0001) %MON dynstat_uvel_max             =   2.6974998130562E-03
(PID.TID 0000.0001) %MON dynstat_uvel_min             =  -1.2056994276286E-02
(PID.TID 0000.0001) %MON dynstat_uvel_mean            =  -1.1742321150860E-07
(PID.TID 0000.0001) %MON dynstat_uvel_sd              =   3.6180772440232E-04
(PID.TID 0000.0001) %MON dynstat_uvel_del2            =   5.8831164367085E-07
(PID.TID 0000.0001) %MON dynstat_vvel_max             =   9.8191740359788E-03
(PID.TID 0000.0001) %MON dynstat_vvel_min             =  -4.6932467367204E-03
(PID.TID 0000.0001) %MON dynstat_vvel_mean            =   1.4958647070683E-05
(PID.TID 0000.0001) %MON dynstat_vvel_sd              =   2.4706797278954E-04
(PID.TID 0000.0001) %MON dynstat_vvel_del2            =   5.2011999081833E-07
(PID.TID 0000.0001) %MON dynstat_wvel_max             =   4.4701303120856E-04
(PID.TID 0000.0001) %MON dynstat_wvel_min             =  -4.5200922846042E-04
(PID.TID 0000.0001) %MON dynstat_wvel_mean            =   6.6369243099822E-09
(PID.TID 0000.0001) %MON dynstat_wvel_sd              =   1.5806561589140E-05
(PID.TID 0000.0001) %MON dynstat_wvel_del2            =   5.9315965381674E-08
(PID.TID 0000.0001) %MON dynstat_theta_max            =   1.2000000000000E+00
(PID.TID 0000.0001) %MON dynstat_theta_min            =  -1.0000000000000E+00
(PID.TID 0000.0001) %MON dynstat_theta_mean           =   5.6890109881125E-01
(PID.TID 0000.0001) %MON dynstat_theta_sd             =   8.6847528752877E-01
(PID.TID 0000.0001) %MON dynstat_theta_del2           =   1.6290096407589E-06
(PID.TID 0000.0001) %MON dynstat_salt_max             =   3.4700000000000E+01
(PID.TID 0000.0001) %MON dynstat_salt_min             =   3.4000000000000E+01
(PID.TID 0000.0001) %MON dynstat_salt_mean            =   3.4499174611421E+01
(PID.TID 0000.0001) %MON dynstat_salt_sd              =   2.7632601177710E-01
(PID.TID 0000.0001) %MON dynstat_salt_del2            =   6.3504898840208E-07
(PID.TID 0000.0001) %MON advcfl_uvel_max              =   1.2056994276286E-03
(PID.TID 0000.0001) %MON advcfl_vvel_max              =   9.8191740359788E-04
(PID.TID 0000.0001) %MON advcfl_wvel_max              =   2.2600461423021E-03
(PID.TID 0000.0001) %MON advcfl_W_hf_max              =   2.2600461423021E-03
(PID.TID 0000.0001) %MON pe_b_mean                    =  -8.3039803494453E-01
(PID.TID 0000.0001) %MON ke_max                       =   4.2689887278799E-05
(PID.TID 0000.0001) %MON ke_mean                      =   9.4785348779893E-08
(PID.TID 0000.0001) %MON ke_vol                       =   4.2724964863585E+12
(PID.TID 0000.0001) // =======================================================
(PID.TID 0000.0001) // End MONITOR dynamic field statistics
(PID.TID 0000.0001) // =======================================================
(PID.TID 0000.0001) // =======================================================
(PID.TID 0000.0001) // Begin OBCS MONITOR field statistics
(PID.TID 0000.0001) // =======================================================
(PID.TID 0000.0001) %MON obc_N_vVel_max               =   1.4720051983252E-05
(PID.TID 0000.0001) %MON obc_N_vVel_min               =   1.4720051983252E-05
(PID.TID 0000.0001) %MON obc_N_vVel_mean              =   1.4720051983252E-05
(PID.TID 0000.0001) %MON obc_N_vVel_sd                =  -2.0912159861106E-23
(PID.TID 0000.0001) %MON obc_N_vVel_Int               =   9.7152343089464E+02
(PID.TID 0000.0001) // =======================================================
(PID.TID 0000.0001) // End OBCS MONITOR field statistics
(PID.TID 0000.0001) // =======================================================
 cg2d: Sum(rhs),rhsMax =   4.51146773054684E+00  2.99915659277605E+02
(PID.TID 0000.0001)      cg2d_init_res =   5.96869545639972E-06
(PID.TID 0000.0001)      cg2d_iters(min,last) =      -1      78
(PID.TID 0000.0001)      cg2d_last_res =   9.25795464121227E-12
(PID.TID 0000.0001) // =======================================================
(PID.TID 0000.0001) // Begin MONITOR dynamic field statistics
(PID.TID 0000.0001) // =======================================================
(PID.TID 0000.0001) %MON time_tsnumber                =                   806
(PID.TID 0000.0001) %MON time_secondsf                =   8.0600000000000E+04
(PID.TID 0000.0001) %MON dynstat_eta_max              =   5.7968223281906E+00
(PID.TID 0000.0001) %MON dynstat_eta_min              =  -1.4194830474689E+01
(PID.TID 0000.0001) %MON dynstat_eta_mean             =  -2.5056663309567E+00
(PID.TID 0000.0001) %MON dynstat_eta_sd               =   4.9504883622484E+00
(PID.TID 0000.0001) %MON dynstat_eta_del2             =   2.0714501964641E-01
(PID.TID 0000.0001) %MON dynstat_uvel_max             =   2.7051380345426E-03
(PID.TID 0000.0001) %MON dynstat_uvel_min             =  -1.2091357502609E-02
(PID.TID 0000.0001) %MON dynstat_uvel_mean            =  -1.1742315019663E-07
(PID.TID 0000.0001) %MON dynstat_uvel_sd              =   3.6272494422885E-04
(PID.TID 0000.0001) %MON dynstat_uvel_del2            =   5.8948020060488E-07
(PID.TID 0000.0001) %MON dynstat_vvel_max             =   9.8459677459686E-03
(PID.TID 0000.0001) %MON dynstat_vvel_min             =  -4.7030172263014E-03
(PID.TID 0000.0001) %MON dynstat_vvel_mean            =   1.4957046261301E-05
(PID.TID 0000.0001) %MON dynstat_vvel_sd              =   2.4761386965817E-04
(PID.TID 0000.0001) %MON dynstat_vvel_del2            =   5.2134959017473E-07
(PID.TID 0000.0001) %MON dynstat_wvel_max             =   4.4843691869326E-04
(PID.TID 0000.0001) %MON dynstat_wvel_min             =  -4.5331232556871E-04
(PID.TID 0000.0001) %MON dynstat_wvel_mean            =   6.6349071795167E-09
(PID.TID 0000.0001) %MON dynstat_wvel_sd              =   1.5901319248926E-05
(PID.TID 0000.0001) %MON dynstat_wvel_del2            =   6.0322686337493E-08
(PID.TID 0000.0001) %MON dynstat_theta_max            =   1.2000000000000E+00
(PID.TID 0000.0001) %MON dynstat_theta_min            =  -1.0000000000000E+00
(PID.TID 0000.0001) %MON dynstat_theta_mean           =   5.6890059700463E-01
(PID.TID 0000.0001) %MON dynstat_theta_sd             =   8.6847501149040E-01
(PID.TID 0000.0001) %MON dynstat_theta_del2           =   1.6314728536956E-06
(PID.TID 0000.0001) %MON dynstat_salt_max             =   3.4700000000000E+01
(PID.TID 0000.0001) %MON dynstat_salt_min             =   3.4000000000000E+01
(PID.TID 0000.0001) %MON dynstat_salt_mean            =   3.4499174410841E+01
(PID.TID 0000.0001) %MON dynstat_salt_sd              =   2.7632590669990E-01
(PID.TID 0000.0001) %MON dynstat_salt_del2            =   6.3612900607735E-07
(PID.TID 0000.0001) %MON advcfl_uvel_max              =   1.2091357502609E-03
(PID.TID 0000.0001) %MON advcfl_vvel_max              =   9.8459677459686E-04
(PID.TID 0000.0001) %MON advcfl_wvel_max              =   2.2665616278435E-03
(PID.TID 0000.0001) %MON advcfl_W_hf_max              =   2.2665616278435E-03
(PID.TID 0000.0001) %MON pe_b_mean                    =  -8.3040140829461E-01
(PID.TID 0000.0001) %MON ke_max                       =   4.2953045309714E-05
(PID.TID 0000.0001) %MON ke_mean                      =   9.5246030697468E-08
(PID.TID 0000.0001) %MON ke_vol                       =   4.2724964141466E+12
(PID.TID 0000.0001) // =======================================================
(PID.TID 0000.0001) // End MONITOR dynamic field statistics
(PID.TID 0000.0001) // =======================================================
(PID.TID 0000.0001) // =======================================================
(PID.TID 0000.0001) // Begin OBCS MONITOR field statistics
(PID.TID 0000.0001) // =======================================================
(PID.TID 0000.0001) %MON obc_N_vVel_max               =   1.4718606479563E-05
(PID.TID 0000.0001) %MON obc_N_vVel_min               =   1.4718606479562E-05
(PID.TID 0000.0001) %MON obc_N_vVel_mean              =   1.4718606479562E-05
(PID.TID 0000.0001) %MON obc_N_vVel_sd                =   1.9158846437623E-12
(PID.TID 0000.0001) %MON obc_N_vVel_Int               =   9.7142802765112E+02
(PID.TID 0000.0001) // =======================================================
(PID.TID 0000.0001) // End OBCS MONITOR field statistics
(PID.TID 0000.0001) // =======================================================
 cg2d: Sum(rhs),rhsMax =   4.51148845928632E+00  2.99915733967071E+02
(PID.TID 0000.0001)      cg2d_init_res =   5.97886964571395E-06
(PID.TID 0000.0001)      cg2d_iters(min,last) =      -1      78
(PID.TID 0000.0001)      cg2d_last_res =   9.27378055182232E-12
(PID.TID 0000.0001) // =======================================================
(PID.TID 0000.0001) // Begin MONITOR dynamic field statistics
(PID.TID 0000.0001) // =======================================================
(PID.TID 0000.0001) %MON time_tsnumber                =                   807
(PID.TID 0000.0001) %MON time_secondsf                =   8.0700000000000E+04
(PID.TID 0000.0001) %MON dynstat_eta_max              =   5.7968139675161E+00
(PID.TID 0000.0001) %MON dynstat_eta_min              =  -1.4194854342442E+01
(PID.TID 0000.0001) %MON dynstat_eta_mean             =  -2.5056784676867E+00
(PID.TID 0000.0001) %MON dynstat_eta_sd               =   4.9504924956298E+00
(PID.TID 0000.0001) %MON dynstat_eta_del2             =   2.0714503667007E-01
(PID.TID 0000.0001) %MON dynstat_uvel_max             =   2.7127940492520E-03
(PID.TID 0000.0001) %MON dynstat_uvel_min             =  -1.2125796579205E-02
(PID.TID 0000.0001) %MON dynstat_uvel_mean            =  -1.1742356618131E-07
(PID.TID 0000.0001) %MON dynstat_uvel_sd              =   3.6364547526019E-04
(PID.TID 0000.0001) %MON dynstat_uvel_del2            =   5.9065257823794E-07
(PID.TID 0000.0001) %MON dynstat_vvel_max             =   9.8728140272755E-03
(PID.TID 0000.0001) %MON dynstat_vvel_min             =  -4.7127975046095E-03
(PID.TID 0000.0001) %MON dynstat_vvel_mean            =   1.4955358520482E-05
(PID.TID 0000.0001) %MON dynstat_vvel_sd              =   2.4816445800438E-04
(PID.TID 0000.0001) %MON dynstat_vvel_del2            =   5.2262616198290E-07
(PID.TID 0000.0001) %MON dynstat_wvel_max             =   4.4986424669002E-04
(PID.TID 0000.0001) %MON dynstat_wvel_min             =  -4.5461886121758E-04
(PID.TID 0000.0001) %MON dynstat_wvel_mean            =   6.6328437380570E-09
(PID.TID 0000.0001) %MON dynstat_wvel_sd              =   1.6010019633927E-05
(PID.TID 0000.0001) %MON dynstat_wvel_del2            =   6.1465968524905E-08
(PID.TID 0000.0001) %MON dynstat_theta_max            =   1.2000000000000E+00
(PID.TID 0000.0001) %MON dynstat_theta_min            =  -1.0000000000000E+00
(PID.TID 0000.0001) %MON dynstat_theta_mean           =   5.6890009421648E-01
(PID.TID 0000.0001) %MON dynstat_theta_sd             =   8.6847473484168E-01
(PID.TID 0000.0001) %MON dynstat_theta_del2           =   1.6338814935302E-06
(PID.TID 0000.0001) %MON dynstat_salt_max             =   3.4700000000000E+01
(PID.TID 0000.0001) %MON dynstat_salt_min             =   3.4000000000000E+01
(PID.TID 0000.0001) %MON dynstat_salt_mean            =   3.4499174209864E+01
(PID.TID 0000.0001) %MON dynstat_salt_sd              =   2.7632580138730E-01
(PID.TID 0000.0001) %MON dynstat_salt_del2            =   6.3719602954381E-07
(PID.TID 0000.0001) %MON advcfl_uvel_max              =   1.2125796579205E-03
(PID.TID 0000.0001) %MON advcfl_vvel_max              =   9.8728140272755E-04
(PID.TID 0000.0001) %MON advcfl_wvel_max              =   2.2730943060879E-03
(PID.TID 0000.0001) %MON advcfl_W_hf_max              =   2.2730943060879E-03
(PID.TID 0000.0001) %MON pe_b_mean                    =  -8.3040477829097E-01
(PID.TID 0000.0001) %MON ke_max                       =   4.3217702738131E-05
(PID.TID 0000.0001) %MON ke_mean                      =   9.5710178318047E-08
(PID.TID 0000.0001) %MON ke_vol                       =   4.2724963419941E+12
(PID.TID 0000.0001) // =======================================================
(PID.TID 0000.0001) // End MONITOR dynamic field statistics
(PID.TID 0000.0001) // =======================================================
(PID.TID 0000.0001) // =======================================================
(PID.TID 0000.0001) // Begin OBCS MONITOR field statistics
(PID.TID 0000.0001) // =======================================================
(PID.TID 0000.0001) %MON obc_N_vVel_max               =   1.4717080603025E-05
(PID.TID 0000.0001) %MON obc_N_vVel_min               =   1.4717080603025E-05
(PID.TID 0000.0001) %MON obc_N_vVel_mean              =   1.4717080603025E-05
(PID.TID 0000.0001) %MON obc_N_vVel_sd                =  -3.0760779029316E-24
(PID.TID 0000.0001) %MON obc_N_vVel_Int               =   9.7132731979968E+02
(PID.TID 0000.0001) // =======================================================
(PID.TID 0000.0001) // End OBCS MONITOR field statistics
(PID.TID 0000.0001) // =======================================================
 cg2d: Sum(rhs),rhsMax =   4.51150917020053E+00  2.99915808612229E+02
(PID.TID 0000.0001)      cg2d_init_res =   5.98995362938567E-06
(PID.TID 0000.0001)      cg2d_iters(min,last) =      -1      78
(PID.TID 0000.0001)      cg2d_last_res =   9.29178721420355E-12
(PID.TID 0000.0001) // =======================================================
(PID.TID 0000.0001) // Begin MONITOR dynamic field statistics
(PID.TID 0000.0001) // =======================================================
(PID.TID 0000.0001) %MON time_tsnumber                =                   808
(PID.TID 0000.0001) %MON time_secondsf                =   8.0800000000000E+04
(PID.TID 0000.0001) %MON dynstat_eta_max              =   5.7968056348976E+00
(PID.TID 0000.0001) %MON dynstat_eta_min              =  -1.4194878190396E+01
(PID.TID 0000.0001) %MON dynstat_eta_mean             =  -2.5056905941522E+00
(PID.TID 0000.0001) %MON dynstat_eta_sd               =   4.9504966261758E+00
(PID.TID 0000.0001) %MON dynstat_eta_del2             =   2.0714505373737E-01
(PID.TID 0000.0001) %MON dynstat_uvel_max             =   2.7204678871122E-03
(PID.TID 0000.0001) %MON dynstat_uvel_min             =  -1.2160311510968E-02
(PID.TID 0000.0001) %MON dynstat_uvel_mean            =  -1.1742448943646E-07
(PID.TID 0000.0001) %MON dynstat_uvel_sd              =   3.6456931634872E-04
(PID.TID 0000.0001) %MON dynstat_uvel_del2            =   5.9182880075543E-07
(PID.TID 0000.0001) %MON dynstat_vvel_max             =   9.8997129182927E-03
(PID.TID 0000.0001) %MON dynstat_vvel_min             =  -4.7225876005079E-03
(PID.TID 0000.0001) %MON dynstat_vvel_mean            =   1.4953592248065E-05
(PID.TID 0000.0001) %MON dynstat_vvel_sd              =   2.4871749836989E-04
(PID.TID 0000.0001) %MON dynstat_vvel_del2            =   5.2391122518817E-07
(PID.TID 0000.0001) %MON dynstat_wvel_max             =   4.5129502177500E-04
(PID.TID 0000.0001) %MON dynstat_wvel_min             =  -4.5592884234861E-04
(PID.TID 0000.0001) %MON dynstat_wvel_mean            =   6.6307538478833E-09
(PID.TID 0000.0001) %MON dynstat_wvel_sd              =   1.6121314287781E-05
(PID.TID 0000.0001) %MON dynstat_wvel_del2            =   6.2628760938949E-08
(PID.TID 0000.0001) %MON dynstat_theta_max            =   1.2000000000000E+00
(PID.TID 0000.0001) %MON dynstat_theta_min            =  -1.0000000000000E+00
(PID.TID 0000.0001) %MON dynstat_theta_mean           =   5.6889959045785E-01
(PID.TID 0000.0001) %MON dynstat_theta_sd             =   8.6847445757275E-01
(PID.TID 0000.0001) %MON dynstat_theta_del2           =   1.6362772211525E-06
(PID.TID 0000.0001) %MON dynstat_salt_max             =   3.4700000000000E+01
(PID.TID 0000.0001) %MON dynstat_salt_min             =   3.4000000000000E+01
(PID.TID 0000.0001) %MON dynstat_salt_mean            =   3.4499174008495E+01
(PID.TID 0000.0001) %MON dynstat_salt_sd              =   2.7632569583614E-01
(PID.TID 0000.0001) %MON dynstat_salt_del2            =   6.3826087821736E-07
(PID.TID 0000.0001) %MON advcfl_uvel_max              =   1.2160311510968E-03
(PID.TID 0000.0001) %MON advcfl_vvel_max              =   9.8997129182927E-04
(PID.TID 0000.0001) %MON advcfl_wvel_max              =   2.2796442117431E-03
(PID.TID 0000.0001) %MON advcfl_W_hf_max              =   2.2796442117431E-03
(PID.TID 0000.0001) %MON pe_b_mean                    =  -8.3040814490278E-01
(PID.TID 0000.0001) %MON ke_max                       =   4.3483866632040E-05
(PID.TID 0000.0001) %MON ke_mean                      =   9.6177251122319E-08
(PID.TID 0000.0001) %MON ke_vol                       =   4.2724962699019E+12
(PID.TID 0000.0001) // =======================================================
(PID.TID 0000.0001) // End MONITOR dynamic field statistics
(PID.TID 0000.0001) // =======================================================
(PID.TID 0000.0001) // =======================================================
(PID.TID 0000.0001) // Begin OBCS MONITOR field statistics
(PID.TID 0000.0001) // =======================================================
(PID.TID 0000.0001) %MON obc_N_vVel_max               =   1.4715480826255E-05
(PID.TID 0000.0001) %MON obc_N_vVel_min               =   1.4715480826254E-05
(PID.TID 0000.0001) %MON obc_N_vVel_mean              =   1.4715480826254E-05
(PID.TID 0000.0001) %MON obc_N_vVel_sd                =   1.5252689837551E-12
(PID.TID 0000.0001) %MON obc_N_vVel_Int               =   9.7122173453279E+02
(PID.TID 0000.0001) // =======================================================
(PID.TID 0000.0001) // End OBCS MONITOR field statistics
(PID.TID 0000.0001) // =======================================================
 cg2d: Sum(rhs),rhsMax =   4.51152986309575E+00  2.99915883213224E+02
(PID.TID 0000.0001)      cg2d_init_res =   6.00099451078279E-06
(PID.TID 0000.0001)      cg2d_iters(min,last) =      -1      78
(PID.TID 0000.0001)      cg2d_last_res =   9.31177239965204E-12
(PID.TID 0000.0001) // =======================================================
(PID.TID 0000.0001) // Begin MONITOR dynamic field statistics
(PID.TID 0000.0001) // =======================================================
(PID.TID 0000.0001) %MON time_tsnumber                =                   809
(PID.TID 0000.0001) %MON time_secondsf                =   8.0900000000000E+04
(PID.TID 0000.0001) %MON dynstat_eta_max              =   5.7967973305381E+00
(PID.TID 0000.0001) %MON dynstat_eta_min              =  -1.4194902018417E+01
(PID.TID 0000.0001) %MON dynstat_eta_mean             =  -2.5057027102467E+00
(PID.TID 0000.0001) %MON dynstat_eta_sd               =   4.9505007538588E+00
(PID.TID 0000.0001) %MON dynstat_eta_del2             =   2.0714507084837E-01
(PID.TID 0000.0001) %MON dynstat_uvel_max             =   2.7281595780373E-03
(PID.TID 0000.0001) %MON dynstat_uvel_min             =  -1.2194902301893E-02
(PID.TID 0000.0001) %MON dynstat_uvel_mean            =  -1.1742595231685E-07
(PID.TID 0000.0001) %MON dynstat_uvel_sd              =   3.6549646476989E-04
(PID.TID 0000.0001) %MON dynstat_uvel_del2            =   5.9300888012364E-07
(PID.TID 0000.0001) %MON dynstat_vvel_max             =   9.9266644571387E-03
(PID.TID 0000.0001) %MON dynstat_vvel_min             =  -4.7323875427061E-03
(PID.TID 0000.0001) %MON dynstat_vvel_mean            =   1.4951756747225E-05
(PID.TID 0000.0001) %MON dynstat_vvel_sd              =   2.4927074419132E-04
(PID.TID 0000.0001) %MON dynstat_vvel_del2            =   5.2516670465816E-07
(PID.TID 0000.0001) %MON dynstat_wvel_max             =   4.5272925050074E-04
(PID.TID 0000.0001) %MON dynstat_wvel_min             =  -4.5724227573437E-04
(PID.TID 0000.0001) %MON dynstat_wvel_mean            =   6.6286569516280E-09
(PID.TID 0000.0001) %MON dynstat_wvel_sd              =   1.6224100889507E-05
(PID.TID 0000.0001) %MON dynstat_wvel_del2            =   6.3700451280281E-08
(PID.TID 0000.0001) %MON dynstat_theta_max            =   1.2000000000000E+00
(PID.TID 0000.0001) %MON dynstat_theta_min            =  -1.0000000000000E+00
(PID.TID 0000.0001) %MON dynstat_theta_mean           =   5.6889908573901E-01
(PID.TID 0000.0001) %MON dynstat_theta_sd             =   8.6847417968208E-01
(PID.TID 0000.0001) %MON dynstat_theta_del2           =   1.6387009225706E-06
(PID.TID 0000.0001) %MON dynstat_salt_max             =   3.4700000000000E+01
(PID.TID 0000.0001) %MON dynstat_salt_min             =   3.4000000000000E+01
(PID.TID 0000.0001) %MON dynstat_salt_mean            =   3.4499173806737E+01
(PID.TID 0000.0001) %MON dynstat_salt_sd              =   2.7632559004576E-01
(PID.TID 0000.0001) %MON dynstat_salt_del2            =   6.3933416994644E-07
(PID.TID 0000.0001) %MON advcfl_uvel_max              =   1.2194902301893E-03
(PID.TID 0000.0001) %MON advcfl_vvel_max              =   9.9266644571387E-04
(PID.TID 0000.0001) %MON advcfl_wvel_max              =   2.2862113786718E-03
(PID.TID 0000.0001) %MON advcfl_W_hf_max              =   2.2862113786718E-03
(PID.TID 0000.0001) %MON pe_b_mean                    =  -8.3041150810238E-01
(PID.TID 0000.0001) %MON ke_max                       =   4.3751544078972E-05
(PID.TID 0000.0001) %MON ke_mean                      =   9.6646701376861E-08
(PID.TID 0000.0001) %MON ke_vol                       =   4.2724961978707E+12
(PID.TID 0000.0001) // =======================================================
(PID.TID 0000.0001) // End MONITOR dynamic field statistics
(PID.TID 0000.0001) // =======================================================
(PID.TID 0000.0001) // =======================================================
(PID.TID 0000.0001) // Begin OBCS MONITOR field statistics
(PID.TID 0000.0001) // =======================================================
(PID.TID 0000.0001) %MON obc_N_vVel_max               =   1.4713814493670E-05
(PID.TID 0000.0001) %MON obc_N_vVel_min               =   1.4713814493670E-05
(PID.TID 0000.0001) %MON obc_N_vVel_mean              =   1.4713814493670E-05
(PID.TID 0000.0001) %MON obc_N_vVel_sd                =   4.1335758766531E-12
(PID.TID 0000.0001) %MON obc_N_vVel_Int               =   9.7111175658219E+02
(PID.TID 0000.0001) // =======================================================
(PID.TID 0000.0001) // End OBCS MONITOR field statistics
(PID.TID 0000.0001) // =======================================================
 cg2d: Sum(rhs),rhsMax =   4.51155053779170E+00  2.99915957770270E+02
(PID.TID 0000.0001)      cg2d_init_res =   6.01103778163733E-06
(PID.TID 0000.0001)      cg2d_iters(min,last) =      -1      78
(PID.TID 0000.0001)      cg2d_last_res =   9.33324110819313E-12
(PID.TID 0000.0001) // =======================================================
(PID.TID 0000.0001) // Begin MONITOR dynamic field statistics
(PID.TID 0000.0001) // =======================================================
(PID.TID 0000.0001) %MON time_tsnumber                =                   810
(PID.TID 0000.0001) %MON time_secondsf                =   8.1000000000000E+04
(PID.TID 0000.0001) %MON dynstat_eta_max              =   5.7967890546182E+00
(PID.TID 0000.0001) %MON dynstat_eta_min              =  -1.4194925826383E+01
(PID.TID 0000.0001) %MON dynstat_eta_mean             =  -2.5057148158718E+00
(PID.TID 0000.0001) %MON dynstat_eta_sd               =   4.9505048786508E+00
(PID.TID 0000.0001) %MON dynstat_eta_del2             =   2.0714508800289E-01
(PID.TID 0000.0001) %MON dynstat_uvel_max             =   2.7358691518238E-03
(PID.TID 0000.0001) %MON dynstat_uvel_min             =  -1.2229568955060E-02
(PID.TID 0000.0001) %MON dynstat_uvel_mean            =  -1.1742798012844E-07
(PID.TID 0000.0001) %MON dynstat_uvel_sd              =   3.6642691620398E-04
(PID.TID 0000.0001) %MON dynstat_uvel_del2            =   5.9419281374140E-07
(PID.TID 0000.0001) %MON dynstat_vvel_max             =   9.9536686815900E-03
(PID.TID 0000.0001) %MON dynstat_vvel_min             =  -4.7421973597990E-03
(PID.TID 0000.0001) %MON dynstat_vvel_mean            =   1.4949861952907E-05
(PID.TID 0000.0001) %MON dynstat_vvel_sd              =   2.4982214779468E-04
(PID.TID 0000.0001) %MON dynstat_vvel_del2            =   5.2635841587746E-07
(PID.TID 0000.0001) %MON dynstat_wvel_max             =   4.5416693940847E-04
(PID.TID 0000.0001) %MON dynstat_wvel_min             =  -4.5855916825230E-04
(PID.TID 0000.0001) %MON dynstat_wvel_mean            =   6.6265712781442E-09
(PID.TID 0000.0001) %MON dynstat_wvel_sd              =   1.6308513747745E-05
(PID.TID 0000.0001) %MON dynstat_wvel_del2            =   6.4585764565300E-08
(PID.TID 0000.0001) %MON dynstat_theta_max            =   1.2000000000000E+00
(PID.TID 0000.0001) %MON dynstat_theta_min            =  -1.0000000000000E+00
(PID.TID 0000.0001) %MON dynstat_theta_mean           =   5.6889858006856E-01
(PID.TID 0000.0001) %MON dynstat_theta_sd             =   8.6847390117684E-01
(PID.TID 0000.0001) %MON dynstat_theta_del2           =   1.6411892324824E-06
(PID.TID 0000.0001) %MON dynstat_salt_max             =   3.4700000000000E+01
(PID.TID 0000.0001) %MON dynstat_salt_min             =   3.4000000000000E+01
(PID.TID 0000.0001) %MON dynstat_salt_mean            =   3.4499173604592E+01
(PID.TID 0000.0001) %MON dynstat_salt_sd              =   2.7632548401820E-01
(PID.TID 0000.0001) %MON dynstat_salt_del2            =   6.4042558744850E-07
(PID.TID 0000.0001) %MON advcfl_uvel_max              =   1.2229568955060E-03
(PID.TID 0000.0001) %MON advcfl_vvel_max              =   9.9536686815900E-04
(PID.TID 0000.0001) %MON advcfl_wvel_max              =   2.2927958412615E-03
(PID.TID 0000.0001) %MON advcfl_W_hf_max              =   2.2927958412615E-03
(PID.TID 0000.0001) %MON pe_b_mean                    =  -8.3041486786420E-01
(PID.TID 0000.0001) %MON ke_max                       =   4.4020742185661E-05
(PID.TID 0000.0001) %MON ke_mean                      =   9.7118025524424E-08
(PID.TID 0000.0001) %MON ke_vol                       =   4.2724961259011E+12
(PID.TID 0000.0001) // =======================================================
(PID.TID 0000.0001) // End MONITOR dynamic field statistics
(PID.TID 0000.0001) // =======================================================
(PID.TID 0000.0001) // =======================================================
(PID.TID 0000.0001) // Begin OBCS MONITOR field statistics
(PID.TID 0000.0001) // =======================================================
(PID.TID 0000.0001) %MON obc_N_vVel_max               =   1.4712089647888E-05
(PID.TID 0000.0001) %MON obc_N_vVel_min               =   1.4712089647887E-05
(PID.TID 0000.0001) %MON obc_N_vVel_mean              =   1.4712089647887E-05
(PID.TID 0000.0001) %MON obc_N_vVel_sd                =   4.0418828654381E-12
(PID.TID 0000.0001) %MON obc_N_vVel_Int               =   9.7099791676057E+02
(PID.TID 0000.0001) // =======================================================
(PID.TID 0000.0001) // End OBCS MONITOR field statistics
(PID.TID 0000.0001) // =======================================================
 cg2d: Sum(rhs),rhsMax =   4.51157119412057E+00  2.99916032283622E+02
(PID.TID 0000.0001)      cg2d_init_res =   6.01924939009183E-06
(PID.TID 0000.0001)      cg2d_iters(min,last) =      -1      78
(PID.TID 0000.0001)      cg2d_last_res =   9.35588286165220E-12
(PID.TID 0000.0001) // =======================================================
(PID.TID 0000.0001) // Begin MONITOR dynamic field statistics
(PID.TID 0000.0001) // =======================================================
(PID.TID 0000.0001) %MON time_tsnumber                =                   811
(PID.TID 0000.0001) %MON time_secondsf                =   8.1100000000000E+04
(PID.TID 0000.0001) %MON dynstat_eta_max              =   5.7967808073028E+00
(PID.TID 0000.0001) %MON dynstat_eta_min              =  -1.4194949614209E+01
(PID.TID 0000.0001) %MON dynstat_eta_mean             =  -2.5057269109365E+00
(PID.TID 0000.0001) %MON dynstat_eta_sd               =   4.9505090005272E+00
(PID.TID 0000.0001) %MON dynstat_eta_del2             =   2.0714510520100E-01
(PID.TID 0000.0001) %MON dynstat_uvel_max             =   2.7435966382932E-03
(PID.TID 0000.0001) %MON dynstat_uvel_min             =  -1.2264311472691E-02
(PID.TID 0000.0001) %MON dynstat_uvel_mean            =  -1.1743058963687E-07
(PID.TID 0000.0001) %MON dynstat_uvel_sd              =   3.6736066474445E-04
(PID.TID 0000.0001) %MON dynstat_uvel_del2            =   5.9538058251751E-07
(PID.TID 0000.0001) %MON dynstat_vvel_max             =   9.9807256290712E-03
(PID.TID 0000.0001) %MON dynstat_vvel_min             =  -4.7520170803343E-03
(PID.TID 0000.0001) %MON dynstat_vvel_mean            =   1.4947918154852E-05
(PID.TID 0000.0001) %MON dynstat_vvel_sd              =   2.5037004292733E-04
(PID.TID 0000.0001) %MON dynstat_vvel_del2            =   5.2745910224569E-07
(PID.TID 0000.0001) %MON dynstat_wvel_max             =   4.5560809501316E-04
(PID.TID 0000.0001) %MON dynstat_wvel_min             =  -4.5987952667779E-04
(PID.TID 0000.0001) %MON dynstat_wvel_mean            =   6.6245136410176E-09
(PID.TID 0000.0001) %MON dynstat_wvel_sd              =   1.6366715251961E-05
(PID.TID 0000.0001) %MON dynstat_wvel_del2            =   6.5210632940872E-08
(PID.TID 0000.0001) %MON dynstat_theta_max            =   1.2000000000000E+00
(PID.TID 0000.0001) %MON dynstat_theta_min            =  -1.0000000000000E+00
(PID.TID 0000.0001) %MON dynstat_theta_mean           =   5.6889807345309E-01
(PID.TID 0000.0001) %MON dynstat_theta_sd             =   8.6847362206732E-01
(PID.TID 0000.0001) %MON dynstat_theta_del2           =   1.6437714977017E-06
(PID.TID 0000.0001) %MON dynstat_salt_max             =   3.4700000000000E+01
(PID.TID 0000.0001) %MON dynstat_salt_min             =   3.4000000000000E+01
(PID.TID 0000.0001) %MON dynstat_salt_mean            =   3.4499173402061E+01
(PID.TID 0000.0001) %MON dynstat_salt_sd              =   2.7632537775691E-01
(PID.TID 0000.0001) %MON dynstat_salt_del2            =   6.4154256179605E-07
(PID.TID 0000.0001) %MON advcfl_uvel_max              =   1.2264311472691E-03
(PID.TID 0000.0001) %MON advcfl_vvel_max              =   9.9807256290712E-04
(PID.TID 0000.0001) %MON advcfl_wvel_max              =   2.2993976333889E-03
(PID.TID 0000.0001) %MON advcfl_W_hf_max              =   2.2993976333889E-03
(PID.TID 0000.0001) %MON pe_b_mean                    =  -8.3041822416448E-01
(PID.TID 0000.0001) %MON ke_max                       =   4.4291468078163E-05
(PID.TID 0000.0001) %MON ke_mean                      =   9.7590810436905E-08
(PID.TID 0000.0001) %MON ke_vol                       =   4.2724960539937E+12
(PID.TID 0000.0001) // =======================================================
(PID.TID 0000.0001) // End MONITOR dynamic field statistics
(PID.TID 0000.0001) // =======================================================
(PID.TID 0000.0001) // =======================================================
(PID.TID 0000.0001) // Begin OBCS MONITOR field statistics
(PID.TID 0000.0001) // =======================================================
(PID.TID 0000.0001) %MON obc_N_vVel_max               =   1.4710314802906E-05
(PID.TID 0000.0001) %MON obc_N_vVel_min               =   1.4710314802906E-05
(PID.TID 0000.0001) %MON obc_N_vVel_mean              =   1.4710314802906E-05
(PID.TID 0000.0001) %MON obc_N_vVel_sd                =   2.1450389640578E-12
(PID.TID 0000.0001) %MON obc_N_vVel_Int               =   9.7088077699180E+02
(PID.TID 0000.0001) // =======================================================
(PID.TID 0000.0001) // End OBCS MONITOR field statistics
(PID.TID 0000.0001) // =======================================================
 cg2d: Sum(rhs),rhsMax =   4.51159183193631E+00  2.99916106753565E+02
(PID.TID 0000.0001)      cg2d_init_res =   6.02494265144412E-06
(PID.TID 0000.0001)      cg2d_iters(min,last) =      -1      78
(PID.TID 0000.0001)      cg2d_last_res =   9.37899632834345E-12
(PID.TID 0000.0001) // =======================================================
(PID.TID 0000.0001) // Begin MONITOR dynamic field statistics
(PID.TID 0000.0001) // =======================================================
(PID.TID 0000.0001) %MON time_tsnumber                =                   812
(PID.TID 0000.0001) %MON time_secondsf                =   8.1200000000000E+04
(PID.TID 0000.0001) %MON dynstat_eta_max              =   5.7967725887326E+00
(PID.TID 0000.0001) %MON dynstat_eta_min              =  -1.4194973381822E+01
(PID.TID 0000.0001) %MON dynstat_eta_mean             =  -2.5057389953621E+00
(PID.TID 0000.0001) %MON dynstat_eta_sd               =   4.9505131194692E+00
(PID.TID 0000.0001) %MON dynstat_eta_del2             =   2.0714512244269E-01
(PID.TID 0000.0001) %MON dynstat_uvel_max             =   2.7513420671639E-03
(PID.TID 0000.0001) %MON dynstat_uvel_min             =  -1.2299129856007E-02
(PID.TID 0000.0001) %MON dynstat_uvel_mean            =  -1.1743378323420E-07
(PID.TID 0000.0001) %MON dynstat_uvel_sd              =   3.6829770303109E-04
(PID.TID 0000.0001) %MON dynstat_uvel_del2            =   5.9657215104007E-07
(PID.TID 0000.0001) %MON dynstat_vvel_max             =   1.0007835336530E-02
(PID.TID 0000.0001) %MON dynstat_vvel_min             =  -4.7618467328796E-03
(PID.TID 0000.0001) %MON dynstat_vvel_mean            =   1.4945935747856E-05
(PID.TID 0000.0001) %MON dynstat_vvel_sd              =   2.5091328782736E-04
(PID.TID 0000.0001) %MON dynstat_vvel_del2            =   5.2845076185731E-07
(PID.TID 0000.0001) %MON dynstat_wvel_max             =   4.5705272381975E-04
(PID.TID 0000.0001) %MON dynstat_wvel_min             =  -4.6120335775579E-04
(PID.TID 0000.0001) %MON dynstat_wvel_mean            =   6.6224989424867E-09
(PID.TID 0000.0001) %MON dynstat_wvel_sd              =   1.6393459429029E-05
(PID.TID 0000.0001) %MON dynstat_wvel_del2            =   6.5525646277241E-08
(PID.TID 0000.0001) %MON dynstat_theta_max            =   1.2000000000000E+00
(PID.TID 0000.0001) %MON dynstat_theta_min            =  -1.0000000000000E+00
(PID.TID 0000.0001) %MON dynstat_theta_mean           =   5.6889756589747E-01
(PID.TID 0000.0001) %MON dynstat_theta_sd             =   8.6847334236333E-01
(PID.TID 0000.0001) %MON dynstat_theta_del2           =   1.6464675369310E-06
(PID.TID 0000.0001) %MON dynstat_salt_max             =   3.4700000000000E+01
(PID.TID 0000.0001) %MON dynstat_salt_min             =   3.4000000000000E+01
(PID.TID 0000.0001) %MON dynstat_salt_mean            =   3.4499173199146E+01
(PID.TID 0000.0001) %MON dynstat_salt_sd              =   2.7632527126460E-01
(PID.TID 0000.0001) %MON dynstat_salt_del2            =   6.4269022596602E-07
(PID.TID 0000.0001) %MON advcfl_uvel_max              =   1.2299129856007E-03
(PID.TID 0000.0001) %MON advcfl_vvel_max              =   1.0007835336530E-03
(PID.TID 0000.0001) %MON advcfl_wvel_max              =   2.3060167887789E-03
(PID.TID 0000.0001) %MON advcfl_W_hf_max              =   2.3060167887789E-03
(PID.TID 0000.0001) %MON pe_b_mean                    =  -8.3042157698332E-01
(PID.TID 0000.0001) %MON ke_max                       =   4.4563728901257E-05
(PID.TID 0000.0001) %MON ke_mean                      =   9.8064770439929E-08
(PID.TID 0000.0001) %MON ke_vol                       =   4.2724959821490E+12
(PID.TID 0000.0001) // =======================================================
(PID.TID 0000.0001) // End MONITOR dynamic field statistics
(PID.TID 0000.0001) // =======================================================
(PID.TID 0000.0001) // =======================================================
(PID.TID 0000.0001) // Begin OBCS MONITOR field statistics
(PID.TID 0000.0001) // =======================================================
(PID.TID 0000.0001) %MON obc_N_vVel_max               =   1.4708498775838E-05
(PID.TID 0000.0001) %MON obc_N_vVel_min               =   1.4708498775838E-05
(PID.TID 0000.0001) %MON obc_N_vVel_mean              =   1.4708498775838E-05
(PID.TID 0000.0001) %MON obc_N_vVel_sd                =   1.7903421107830E-12
(PID.TID 0000.0001) %MON obc_N_vVel_Int               =   9.7076091920528E+02
(PID.TID 0000.0001) // =======================================================
(PID.TID 0000.0001) // End OBCS MONITOR field statistics
(PID.TID 0000.0001) // =======================================================
 cg2d: Sum(rhs),rhsMax =   4.51161245110638E+00  2.99916181180417E+02
(PID.TID 0000.0001)      cg2d_init_res =   6.02771975730160E-06
(PID.TID 0000.0001)      cg2d_iters(min,last) =      -1      78
(PID.TID 0000.0001)      cg2d_last_res =   9.40176776696127E-12
(PID.TID 0000.0001) // =======================================================
(PID.TID 0000.0001) // Begin MONITOR dynamic field statistics
(PID.TID 0000.0001) // =======================================================
(PID.TID 0000.0001) %MON time_tsnumber                =                   813
(PID.TID 0000.0001) %MON time_secondsf                =   8.1300000000000E+04
(PID.TID 0000.0001) %MON dynstat_eta_max              =   5.7967643990299E+00
(PID.TID 0000.0001) %MON dynstat_eta_min              =  -1.4194997129167E+01
(PID.TID 0000.0001) %MON dynstat_eta_mean             =  -2.5057510690775E+00
(PID.TID 0000.0001) %MON dynstat_eta_sd               =   4.9505172354637E+00
(PID.TID 0000.0001) %MON dynstat_eta_del2             =   2.0714513972814E-01
(PID.TID 0000.0001) %MON dynstat_uvel_max             =   2.7591054683427E-03
(PID.TID 0000.0001) %MON dynstat_uvel_min             =  -1.2334024105371E-02
(PID.TID 0000.0001) %MON dynstat_uvel_mean            =  -1.1743755695578E-07
(PID.TID 0000.0001) %MON dynstat_uvel_sd              =   3.6923802237697E-04
(PID.TID 0000.0001) %MON dynstat_uvel_del2            =   5.9776746777905E-07
(PID.TID 0000.0001) %MON dynstat_vvel_max             =   1.0034997840497E-02
(PID.TID 0000.0001) %MON dynstat_vvel_min             =  -4.7716863459728E-03
(PID.TID 0000.0001) %MON dynstat_vvel_mean            =   1.4943924978839E-05
(PID.TID 0000.0001) %MON dynstat_vvel_sd              =   2.5145135652735E-04
(PID.TID 0000.0001) %MON dynstat_vvel_del2            =   5.2932608834195E-07
(PID.TID 0000.0001) %MON dynstat_wvel_max             =   4.5850083231345E-04
(PID.TID 0000.0001) %MON dynstat_wvel_min             =  -4.6253066820223E-04
(PID.TID 0000.0001) %MON dynstat_wvel_mean            =   6.6205397135236E-09
(PID.TID 0000.0001) %MON dynstat_wvel_sd              =   1.6386423715659E-05
(PID.TID 0000.0001) %MON dynstat_wvel_del2            =   6.5507741819067E-08
(PID.TID 0000.0001) %MON dynstat_theta_max            =   1.2000000000000E+00
(PID.TID 0000.0001) %MON dynstat_theta_min            =  -1.0000000000000E+00
(PID.TID 0000.0001) %MON dynstat_theta_mean           =   5.6889705740407E-01
(PID.TID 0000.0001) %MON dynstat_theta_sd             =   8.6847306207115E-01
(PID.TID 0000.0001) %MON dynstat_theta_del2           =   1.6492861697861E-06
(PID.TID 0000.0001) %MON dynstat_salt_max             =   3.4700000000000E+01
(PID.TID 0000.0001) %MON dynstat_salt_min             =   3.4000000000000E+01
(PID.TID 0000.0001) %MON dynstat_salt_mean            =   3.4499172995848E+01
(PID.TID 0000.0001) %MON dynstat_salt_sd              =   2.7632516454330E-01
(PID.TID 0000.0001) %MON dynstat_salt_del2            =   6.4387085562053E-07
(PID.TID 0000.0001) %MON advcfl_uvel_max              =   1.2334024105371E-03
(PID.TID 0000.0001) %MON advcfl_vvel_max              =   1.0034997840497E-03
(PID.TID 0000.0001) %MON advcfl_wvel_max              =   2.3126533410112E-03
(PID.TID 0000.0001) %MON advcfl_W_hf_max              =   2.3126533410112E-03
(PID.TID 0000.0001) %MON pe_b_mean                    =  -8.3042492630295E-01
(PID.TID 0000.0001) %MON ke_max                       =   4.4837531818469E-05
(PID.TID 0000.0001) %MON ke_mean                      =   9.8539771784898E-08
(PID.TID 0000.0001) %MON ke_vol                       =   4.2724959103675E+12
(PID.TID 0000.0001) // =======================================================
(PID.TID 0000.0001) // End MONITOR dynamic field statistics
(PID.TID 0000.0001) // =======================================================
(PID.TID 0000.0001) // =======================================================
(PID.TID 0000.0001) // Begin OBCS MONITOR field statistics
(PID.TID 0000.0001) // =======================================================
(PID.TID 0000.0001) %MON obc_N_vVel_max               =   1.4706650416560E-05
(PID.TID 0000.0001) %MON obc_N_vVel_min               =   1.4706650416560E-05
(PID.TID 0000.0001) %MON obc_N_vVel_mean              =   1.4706650416560E-05
(PID.TID 0000.0001) %MON obc_N_vVel_sd                =   3.1505820653708E-12
(PID.TID 0000.0001) %MON obc_N_vVel_Int               =   9.7063892749295E+02
(PID.TID 0000.0001) // =======================================================
(PID.TID 0000.0001) // End OBCS MONITOR field statistics
(PID.TID 0000.0001) // =======================================================
 cg2d: Sum(rhs),rhsMax =   4.51163305152230E+00  2.99916255564539E+02
(PID.TID 0000.0001)      cg2d_init_res =   6.02743633507525E-06
(PID.TID 0000.0001)      cg2d_iters(min,last) =      -1      78
(PID.TID 0000.0001)      cg2d_last_res =   9.42316887923101E-12
(PID.TID 0000.0001) // =======================================================
(PID.TID 0000.0001) // Begin MONITOR dynamic field statistics
(PID.TID 0000.0001) // =======================================================
(PID.TID 0000.0001) %MON time_tsnumber                =                   814
(PID.TID 0000.0001) %MON time_secondsf                =   8.1400000000000E+04
(PID.TID 0000.0001) %MON dynstat_eta_max              =   5.7967562383031E+00
(PID.TID 0000.0001) %MON dynstat_eta_min              =  -1.4195020856224E+01
(PID.TID 0000.0001) %MON dynstat_eta_mean             =  -2.5057631320255E+00
(PID.TID 0000.0001) %MON dynstat_eta_sd               =   4.9505213485027E+00
(PID.TID 0000.0001) %MON dynstat_eta_del2             =   2.0714515705757E-01
(PID.TID 0000.0001) %MON dynstat_uvel_max             =   2.7668868716120E-03
(PID.TID 0000.0001) %MON dynstat_uvel_min             =  -1.2368994220111E-02
(PID.TID 0000.0001) %MON dynstat_uvel_mean            =  -1.1744189713125E-07
(PID.TID 0000.0001) %MON dynstat_uvel_sd              =   3.7018161298591E-04
(PID.TID 0000.0001) %MON dynstat_uvel_del2            =   5.9896646681183E-07
(PID.TID 0000.0001) %MON dynstat_vvel_max             =   1.0062213176925E-02
(PID.TID 0000.0001) %MON dynstat_vvel_min             =  -4.7815359481911E-03
(PID.TID 0000.0001) %MON dynstat_vvel_mean            =   1.4941895715920E-05
(PID.TID 0000.0001) %MON dynstat_vvel_sd              =   2.5198437139185E-04
(PID.TID 0000.0001) %MON dynstat_vvel_del2            =   5.3008891625948E-07
(PID.TID 0000.0001) %MON dynstat_wvel_max             =   4.5995242695174E-04
(PID.TID 0000.0001) %MON dynstat_wvel_min             =  -4.6386146470027E-04
(PID.TID 0000.0001) %MON dynstat_wvel_mean            =   6.6186458545619E-09
(PID.TID 0000.0001) %MON dynstat_wvel_sd              =   1.6346316358975E-05
(PID.TID 0000.0001) %MON dynstat_wvel_del2            =   6.5160617106652E-08
(PID.TID 0000.0001) %MON dynstat_theta_max            =   1.2000000000000E+00
(PID.TID 0000.0001) %MON dynstat_theta_min            =  -1.0000000000000E+00
(PID.TID 0000.0001) %MON dynstat_theta_mean           =   5.6889654797344E-01
(PID.TID 0000.0001) %MON dynstat_theta_sd             =   8.6847278119419E-01
(PID.TID 0000.0001) %MON dynstat_theta_del2           =   1.6522248633708E-06
(PID.TID 0000.0001) %MON dynstat_salt_max             =   3.4700000000000E+01
(PID.TID 0000.0001) %MON dynstat_salt_min             =   3.4000000000000E+01
(PID.TID 0000.0001) %MON dynstat_salt_mean            =   3.4499172792165E+01
(PID.TID 0000.0001) %MON dynstat_salt_sd              =   2.7632505759398E-01
(PID.TID 0000.0001) %MON dynstat_salt_del2            =   6.4508382149251E-07
(PID.TID 0000.0001) %MON advcfl_uvel_max              =   1.2368994220111E-03
(PID.TID 0000.0001) %MON advcfl_vvel_max              =   1.0062213176925E-03
(PID.TID 0000.0001) %MON advcfl_wvel_max              =   2.3193073235013E-03
(PID.TID 0000.0001) %MON advcfl_W_hf_max              =   2.3193073235013E-03
(PID.TID 0000.0001) %MON pe_b_mean                    =  -8.3042827210920E-01
(PID.TID 0000.0001) %MON ke_max                       =   4.5112884012376E-05
(PID.TID 0000.0001) %MON ke_mean                      =   9.9015842612742E-08
(PID.TID 0000.0001) %MON ke_vol                       =   4.2724958386497E+12
(PID.TID 0000.0001) // =======================================================
(PID.TID 0000.0001) // End MONITOR dynamic field statistics
(PID.TID 0000.0001) // =======================================================
(PID.TID 0000.0001) // =======================================================
(PID.TID 0000.0001) // Begin OBCS MONITOR field statistics
(PID.TID 0000.0001) // =======================================================
(PID.TID 0000.0001) %MON obc_N_vVel_max               =   1.4704778434063E-05
(PID.TID 0000.0001) %MON obc_N_vVel_min               =   1.4704778434063E-05
(PID.TID 0000.0001) %MON obc_N_vVel_mean              =   1.4704778434063E-05
(PID.TID 0000.0001) %MON obc_N_vVel_sd                =   2.5824685261797E-12
(PID.TID 0000.0001) %MON obc_N_vVel_Int               =   9.7051537664816E+02
(PID.TID 0000.0001) // =======================================================
(PID.TID 0000.0001) // End OBCS MONITOR field statistics
(PID.TID 0000.0001) // =======================================================
 cg2d: Sum(rhs),rhsMax =   4.51165363309061E+00  2.99916329906323E+02
(PID.TID 0000.0001)      cg2d_init_res =   6.02422236444459E-06
(PID.TID 0000.0001)      cg2d_iters(min,last) =      -1      78
(PID.TID 0000.0001)      cg2d_last_res =   9.44221095654986E-12
(PID.TID 0000.0001) // =======================================================
(PID.TID 0000.0001) // Begin MONITOR dynamic field statistics
(PID.TID 0000.0001) // =======================================================
(PID.TID 0000.0001) %MON time_tsnumber                =                   815
(PID.TID 0000.0001) %MON time_secondsf                =   8.1500000000000E+04
(PID.TID 0000.0001) %MON dynstat_eta_max              =   5.7967481066302E+00
(PID.TID 0000.0001) %MON dynstat_eta_min              =  -1.4195044562979E+01
(PID.TID 0000.0001) %MON dynstat_eta_mean             =  -2.5057751841575E+00
(PID.TID 0000.0001) %MON dynstat_eta_sd               =   4.9505254585839E+00
(PID.TID 0000.0001) %MON dynstat_eta_del2             =   2.0714517443133E-01
(PID.TID 0000.0001) %MON dynstat_uvel_max             =   2.7746863068501E-03
(PID.TID 0000.0001) %MON dynstat_uvel_min             =  -1.2404040198586E-02
(PID.TID 0000.0001) %MON dynstat_uvel_mean            =  -1.1744677647450E-07
(PID.TID 0000.0001) %MON dynstat_uvel_sd              =   3.7112846422113E-04
(PID.TID 0000.0001) %MON dynstat_uvel_del2            =   6.0016907057180E-07
(PID.TID 0000.0001) %MON dynstat_vvel_max             =   1.0089481380712E-02
(PID.TID 0000.0001) %MON dynstat_vvel_min             =  -4.7913955681667E-03
(PID.TID 0000.0001) %MON dynstat_vvel_mean            =   1.4939857238225E-05
(PID.TID 0000.0001) %MON dynstat_vvel_sd              =   2.5251307527553E-04
(PID.TID 0000.0001) %MON dynstat_vvel_del2            =   5.3075365575989E-07
(PID.TID 0000.0001) %MON dynstat_wvel_max             =   4.6140751411314E-04
(PID.TID 0000.0001) %MON dynstat_wvel_min             =  -4.6519575386397E-04
(PID.TID 0000.0001) %MON dynstat_wvel_mean            =   6.6168250677701E-09
(PID.TID 0000.0001) %MON dynstat_wvel_sd              =   1.6276768866330E-05
(PID.TID 0000.0001) %MON dynstat_wvel_del2            =   6.4514109824116E-08
(PID.TID 0000.0001) %MON dynstat_theta_max            =   1.2000000000000E+00
(PID.TID 0000.0001) %MON dynstat_theta_min            =  -1.0000000000000E+00
(PID.TID 0000.0001) %MON dynstat_theta_mean           =   5.6889603760365E-01
(PID.TID 0000.0001) %MON dynstat_theta_sd             =   8.6847249973270E-01
(PID.TID 0000.0001) %MON dynstat_theta_del2           =   1.6552708524979E-06
(PID.TID 0000.0001) %MON dynstat_salt_max             =   3.4700000000000E+01
(PID.TID 0000.0001) %MON dynstat_salt_min             =   3.4000000000000E+01
(PID.TID 0000.0001) %MON dynstat_salt_mean            =   3.4499172588099E+01
(PID.TID 0000.0001) %MON dynstat_salt_sd              =   2.7632495041664E-01
(PID.TID 0000.0001) %MON dynstat_salt_del2            =   6.4632579716808E-07
(PID.TID 0000.0001) %MON advcfl_uvel_max              =   1.2404040198586E-03
(PID.TID 0000.0001) %MON advcfl_vvel_max              =   1.0089481380712E-03
(PID.TID 0000.0001) %MON advcfl_wvel_max              =   2.3259787693198E-03
(PID.TID 0000.0001) %MON advcfl_W_hf_max              =   2.3259787693198E-03
(PID.TID 0000.0001) %MON pe_b_mean                    =  -8.3043161439021E-01
(PID.TID 0000.0001) %MON ke_max                       =   4.5389792683488E-05
(PID.TID 0000.0001) %MON ke_mean                      =   9.9493167751574E-08
(PID.TID 0000.0001) %MON ke_vol                       =   4.2724957669958E+12
(PID.TID 0000.0001) // =======================================================
(PID.TID 0000.0001) // End MONITOR dynamic field statistics
(PID.TID 0000.0001) // =======================================================
(PID.TID 0000.0001) // =======================================================
(PID.TID 0000.0001) // Begin OBCS MONITOR field statistics
(PID.TID 0000.0001) // =======================================================
(PID.TID 0000.0001) %MON obc_N_vVel_max               =   1.4702891173459E-05
(PID.TID 0000.0001) %MON obc_N_vVel_min               =   1.4702891173458E-05
(PID.TID 0000.0001) %MON obc_N_vVel_mean              =   1.4702891173459E-05
(PID.TID 0000.0001) %MON obc_N_vVel_sd                =  -1.7525889228467E-23
(PID.TID 0000.0001) %MON obc_N_vVel_Int               =   9.7039081744827E+02
(PID.TID 0000.0001) // =======================================================
(PID.TID 0000.0001) // End OBCS MONITOR field statistics
(PID.TID 0000.0001) // =======================================================
 cg2d: Sum(rhs),rhsMax =   4.51167419573520E+00  2.99916404206211E+02
(PID.TID 0000.0001)      cg2d_init_res =   6.01846111249709E-06
(PID.TID 0000.0001)      cg2d_iters(min,last) =      -1      78
(PID.TID 0000.0001)      cg2d_last_res =   9.45787745553482E-12
(PID.TID 0000.0001) // =======================================================
(PID.TID 0000.0001) // Begin MONITOR dynamic field statistics
(PID.TID 0000.0001) // =======================================================
(PID.TID 0000.0001) %MON time_tsnumber                =                   816
(PID.TID 0000.0001) %MON time_secondsf                =   8.1600000000000E+04
(PID.TID 0000.0001) %MON dynstat_eta_max              =   5.7967400040906E+00
(PID.TID 0000.0001) %MON dynstat_eta_min              =  -1.4195068249440E+01
(PID.TID 0000.0001) %MON dynstat_eta_mean             =  -2.5057872254349E+00
(PID.TID 0000.0001) %MON dynstat_eta_sd               =   4.9505295657037E+00
(PID.TID 0000.0001) %MON dynstat_eta_del2             =   2.0714519184968E-01
(PID.TID 0000.0001) %MON dynstat_uvel_max             =   2.7825038042586E-03
(PID.TID 0000.0001) %MON dynstat_uvel_min             =  -1.2439162038124E-02
(PID.TID 0000.0001) %MON dynstat_uvel_mean            =  -1.1745215489440E-07
(PID.TID 0000.0001) %MON dynstat_uvel_sd              =   3.7207856495052E-04
(PID.TID 0000.0001) %MON dynstat_uvel_del2            =   6.0137519308742E-07
(PID.TID 0000.0001) %MON dynstat_vvel_max             =   1.0116802486718E-02
(PID.TID 0000.0001) %MON dynstat_vvel_min             =  -4.8012652342688E-03
(PID.TID 0000.0001) %MON dynstat_vvel_mean            =   1.4937818073718E-05
(PID.TID 0000.0001) %MON dynstat_vvel_sd              =   2.5303874716355E-04
(PID.TID 0000.0001) %MON dynstat_vvel_del2            =   5.3134378021551E-07
(PID.TID 0000.0001) %MON dynstat_wvel_max             =   4.6286610022784E-04
(PID.TID 0000.0001) %MON dynstat_wvel_min             =  -4.6653354230039E-04
(PID.TID 0000.0001) %MON dynstat_wvel_mean            =   6.6150827088834E-09
(PID.TID 0000.0001) %MON dynstat_wvel_sd              =   1.6184021121016E-05
(PID.TID 0000.0001) %MON dynstat_wvel_del2            =   6.3622546157897E-08
(PID.TID 0000.0001) %MON dynstat_theta_max            =   1.2000000000000E+00
(PID.TID 0000.0001) %MON dynstat_theta_min            =  -1.0000000000000E+00
(PID.TID 0000.0001) %MON dynstat_theta_mean           =   5.6889552629054E-01
(PID.TID 0000.0001) %MON dynstat_theta_sd             =   8.6847221768607E-01
(PID.TID 0000.0001) %MON dynstat_theta_del2           =   1.6584025147479E-06
(PID.TID 0000.0001) %MON dynstat_salt_max             =   3.4700000000000E+01
(PID.TID 0000.0001) %MON dynstat_salt_min             =   3.4000000000000E+01
(PID.TID 0000.0001) %MON dynstat_salt_mean            =   3.4499172383645E+01
(PID.TID 0000.0001) %MON dynstat_salt_sd              =   2.7632484301105E-01
(PID.TID 0000.0001) %MON dynstat_salt_del2            =   6.4759116767281E-07
(PID.TID 0000.0001) %MON advcfl_uvel_max              =   1.2439162038124E-03
(PID.TID 0000.0001) %MON advcfl_vvel_max              =   1.0116802486718E-03
(PID.TID 0000.0001) %MON advcfl_wvel_max              =   2.3326677115019E-03
(PID.TID 0000.0001) %MON advcfl_W_hf_max              =   2.3326677115019E-03
(PID.TID 0000.0001) %MON pe_b_mean                    =  -8.3043495313641E-01
(PID.TID 0000.0001) %MON ke_max                       =   4.5668265051398E-05
(PID.TID 0000.0001) %MON ke_mean                      =   9.9972069112747E-08
(PID.TID 0000.0001) %MON ke_vol                       =   4.2724956954061E+12
(PID.TID 0000.0001) // =======================================================
(PID.TID 0000.0001) // End MONITOR dynamic field statistics
(PID.TID 0000.0001) // =======================================================
(PID.TID 0000.0001) // =======================================================
(PID.TID 0000.0001) // Begin OBCS MONITOR field statistics
(PID.TID 0000.0001) // =======================================================
(PID.TID 0000.0001) %MON obc_N_vVel_max               =   1.4700996485430E-05
(PID.TID 0000.0001) %MON obc_N_vVel_min               =   1.4700996485430E-05
(PID.TID 0000.0001) %MON obc_N_vVel_mean              =   1.4700996485430E-05
(PID.TID 0000.0001) %MON obc_N_vVel_sd                =  -2.0679515313826E-23
(PID.TID 0000.0001) %MON obc_N_vVel_Int               =   9.7026576803840E+02
(PID.TID 0000.0001) // =======================================================
(PID.TID 0000.0001) // End OBCS MONITOR field statistics
(PID.TID 0000.0001) // =======================================================
 cg2d: Sum(rhs),rhsMax =   4.51169473939509E+00  2.99916478464711E+02
(PID.TID 0000.0001)      cg2d_init_res =   6.01077423881276E-06
(PID.TID 0000.0001)      cg2d_iters(min,last) =      -1      78
(PID.TID 0000.0001)      cg2d_last_res =   9.46963316387814E-12
(PID.TID 0000.0001) // =======================================================
(PID.TID 0000.0001) // Begin MONITOR dynamic field statistics
(PID.TID 0000.0001) // =======================================================
(PID.TID 0000.0001) %MON time_tsnumber                =                   817
(PID.TID 0000.0001) %MON time_secondsf                =   8.1700000000000E+04
(PID.TID 0000.0001) %MON dynstat_eta_max              =   5.7967319307434E+00
(PID.TID 0000.0001) %MON dynstat_eta_min              =  -1.4195091915632E+01
(PID.TID 0000.0001) %MON dynstat_eta_mean             =  -2.5057992558280E+00
(PID.TID 0000.0001) %MON dynstat_eta_sd               =   4.9505336698608E+00
(PID.TID 0000.0001) %MON dynstat_eta_del2             =   2.0714520931282E-01
(PID.TID 0000.0001) %MON dynstat_uvel_max             =   2.7903393941422E-03
(PID.TID 0000.0001) %MON dynstat_uvel_min             =  -1.2474359735094E-02
(PID.TID 0000.0001) %MON dynstat_uvel_mean            =  -1.1745797662049E-07
(PID.TID 0000.0001) %MON dynstat_uvel_sd              =   3.7303190386595E-04
(PID.TID 0000.0001) %MON dynstat_uvel_del2            =   6.0258474536779E-07
(PID.TID 0000.0001) %MON dynstat_vvel_max             =   1.0144176529191E-02
(PID.TID 0000.0001) %MON dynstat_vvel_min             =  -4.8111449749300E-03
(PID.TID 0000.0001) %MON dynstat_vvel_mean            =   1.4935785882495E-05
(PID.TID 0000.0001) %MON dynstat_vvel_sd              =   2.5356307050582E-04
(PID.TID 0000.0001) %MON dynstat_vvel_del2            =   5.3188951869389E-07
(PID.TID 0000.0001) %MON dynstat_wvel_max             =   4.6432819170482E-04
(PID.TID 0000.0001) %MON dynstat_wvel_min             =  -4.6787483651584E-04
(PID.TID 0000.0001) %MON dynstat_wvel_mean            =   6.6134219181459E-09
(PID.TID 0000.0001) %MON dynstat_wvel_sd              =   1.6076406884856E-05
(PID.TID 0000.0001) %MON dynstat_wvel_del2            =   6.2561843873550E-08
(PID.TID 0000.0001) %MON dynstat_theta_max            =   1.2000000000000E+00
(PID.TID 0000.0001) %MON dynstat_theta_min            =  -1.0000000000000E+00
(PID.TID 0000.0001) %MON dynstat_theta_mean           =   5.6889501402798E-01
(PID.TID 0000.0001) %MON dynstat_theta_sd             =   8.6847193504909E-01
(PID.TID 0000.0001) %MON dynstat_theta_del2           =   1.6615920696942E-06
(PID.TID 0000.0001) %MON dynstat_salt_max             =   3.4700000000000E+01
(PID.TID 0000.0001) %MON dynstat_salt_min             =   3.4000000000000E+01
(PID.TID 0000.0001) %MON dynstat_salt_mean            =   3.4499172178803E+01
(PID.TID 0000.0001) %MON dynstat_salt_sd              =   2.7632473537533E-01
(PID.TID 0000.0001) %MON dynstat_salt_del2            =   6.4887277227785E-07
(PID.TID 0000.0001) %MON advcfl_uvel_max              =   1.2474359735094E-03
(PID.TID 0000.0001) %MON advcfl_vvel_max              =   1.0144176529191E-03
(PID.TID 0000.0001) %MON advcfl_wvel_max              =   2.3393741825792E-03
(PID.TID 0000.0001) %MON advcfl_W_hf_max              =   2.3393741825792E-03
(PID.TID 0000.0001) %MON pe_b_mean                    =  -8.3043828834031E-01
(PID.TID 0000.0001) %MON ke_max                       =   4.5948308353456E-05
(PID.TID 0000.0001) %MON ke_mean                      =   1.0045297379457E-07
(PID.TID 0000.0001) %MON ke_vol                       =   4.2724956238809E+12
(PID.TID 0000.0001) // =======================================================
(PID.TID 0000.0001) // End MONITOR dynamic field statistics
(PID.TID 0000.0001) // =======================================================
(PID.TID 0000.0001) // =======================================================
(PID.TID 0000.0001) // Begin OBCS MONITOR field statistics
(PID.TID 0000.0001) // =======================================================
(PID.TID 0000.0001) %MON obc_N_vVel_max               =   1.4699101606249E-05
(PID.TID 0000.0001) %MON obc_N_vVel_min               =   1.4699101606249E-05
(PID.TID 0000.0001) %MON obc_N_vVel_mean              =   1.4699101606249E-05
(PID.TID 0000.0001) %MON obc_N_vVel_sd                =   1.0785280415468E-12
(PID.TID 0000.0001) %MON obc_N_vVel_Int               =   9.7014070601241E+02
(PID.TID 0000.0001) // =======================================================
(PID.TID 0000.0001) // End OBCS MONITOR field statistics
(PID.TID 0000.0001) // =======================================================
 cg2d: Sum(rhs),rhsMax =   4.51171526401919E+00  2.99916552682408E+02
(PID.TID 0000.0001)      cg2d_init_res =   6.00195302601802E-06
(PID.TID 0000.0001)      cg2d_iters(min,last) =      -1      78
(PID.TID 0000.0001)      cg2d_last_res =   9.47727302213795E-12
(PID.TID 0000.0001) // =======================================================
(PID.TID 0000.0001) // Begin MONITOR dynamic field statistics
(PID.TID 0000.0001) // =======================================================
(PID.TID 0000.0001) %MON time_tsnumber                =                   818
(PID.TID 0000.0001) %MON time_secondsf                =   8.1800000000000E+04
(PID.TID 0000.0001) %MON dynstat_eta_max              =   5.7967238866324E+00
(PID.TID 0000.0001) %MON dynstat_eta_min              =  -1.4195115561592E+01
(PID.TID 0000.0001) %MON dynstat_eta_mean             =  -2.5058112753134E+00
(PID.TID 0000.0001) %MON dynstat_eta_sd               =   4.9505377710563E+00
(PID.TID 0000.0001) %MON dynstat_eta_del2             =   2.0714522682092E-01
(PID.TID 0000.0001) %MON dynstat_uvel_max             =   2.7981931067913E-03
(PID.TID 0000.0001) %MON dynstat_uvel_min             =  -1.2509633284896E-02
(PID.TID 0000.0001) %MON dynstat_uvel_mean            =  -1.1746416758538E-07
(PID.TID 0000.0001) %MON dynstat_uvel_sd              =   3.7398846984558E-04
(PID.TID 0000.0001) %MON dynstat_uvel_del2            =   6.0379763921077E-07
(PID.TID 0000.0001) %MON dynstat_vvel_max             =   1.0171603541773E-02
(PID.TID 0000.0001) %MON dynstat_vvel_min             =  -4.8210348185602E-03
(PID.TID 0000.0001) %MON dynstat_vvel_mean            =   1.4933767386564E-05
(PID.TID 0000.0001) %MON dynstat_vvel_sd              =   2.5408796718068E-04
(PID.TID 0000.0001) %MON dynstat_vvel_del2            =   5.3242495632772E-07
(PID.TID 0000.0001) %MON dynstat_wvel_max             =   4.6579379492759E-04
(PID.TID 0000.0001) %MON dynstat_wvel_min             =  -4.6921964303270E-04
(PID.TID 0000.0001) %MON dynstat_wvel_mean            =   6.6118436187574E-09
(PID.TID 0000.0001) %MON dynstat_wvel_sd              =   1.5963653156520E-05
(PID.TID 0000.0001) %MON dynstat_wvel_del2            =   6.1424982011014E-08
(PID.TID 0000.0001) %MON dynstat_theta_max            =   1.2000000000000E+00
(PID.TID 0000.0001) %MON dynstat_theta_min            =  -1.0000000000000E+00
(PID.TID 0000.0001) %MON dynstat_theta_mean           =   5.6889450080702E-01
(PID.TID 0000.0001) %MON dynstat_theta_sd             =   8.6847165181833E-01
(PID.TID 0000.0001) %MON dynstat_theta_del2           =   1.6648085124012E-06
(PID.TID 0000.0001) %MON dynstat_salt_max             =   3.4700000000000E+01
(PID.TID 0000.0001) %MON dynstat_salt_min             =   3.4000000000000E+01
(PID.TID 0000.0001) %MON dynstat_salt_mean            =   3.4499171973570E+01
(PID.TID 0000.0001) %MON dynstat_salt_sd              =   2.7632462750829E-01
(PID.TID 0000.0001) %MON dynstat_salt_del2            =   6.5016254161493E-07
(PID.TID 0000.0001) %MON advcfl_uvel_max              =   1.2509633284896E-03
(PID.TID 0000.0001) %MON advcfl_vvel_max              =   1.0171603541773E-03
(PID.TID 0000.0001) %MON advcfl_wvel_max              =   2.3460982151635E-03
(PID.TID 0000.0001) %MON advcfl_W_hf_max              =   2.3460982151635E-03
(PID.TID 0000.0001) %MON pe_b_mean                    =  -8.3044161999578E-01
(PID.TID 0000.0001) %MON ke_max                       =   4.6229929845817E-05
(PID.TID 0000.0001) %MON ke_mean                      =   1.0093637305783E-07
(PID.TID 0000.0001) %MON ke_vol                       =   4.2724955524204E+12
(PID.TID 0000.0001) // =======================================================
(PID.TID 0000.0001) // End MONITOR dynamic field statistics
(PID.TID 0000.0001) // =======================================================
(PID.TID 0000.0001) // =======================================================
(PID.TID 0000.0001) // Begin OBCS MONITOR field statistics
(PID.TID 0000.0001) // =======================================================
(PID.TID 0000.0001) %MON obc_N_vVel_max               =   1.4697213097382E-05
(PID.TID 0000.0001) %MON obc_N_vVel_min               =   1.4697213097382E-05
(PID.TID 0000.0001) %MON obc_N_vVel_mean              =   1.4697213097382E-05
(PID.TID 0000.0001) %MON obc_N_vVel_sd                =   5.0099662386244E-12
(PID.TID 0000.0001) %MON obc_N_vVel_Int               =   9.7001606442718E+02
(PID.TID 0000.0001) // =======================================================
(PID.TID 0000.0001) // End OBCS MONITOR field statistics
(PID.TID 0000.0001) // =======================================================
 cg2d: Sum(rhs),rhsMax =   4.51173576956689E+00  2.99916626859980E+02
(PID.TID 0000.0001)      cg2d_init_res =   5.99287413077683E-06
(PID.TID 0000.0001)      cg2d_iters(min,last) =      -1      78
(PID.TID 0000.0001)      cg2d_last_res =   9.48108374642441E-12
(PID.TID 0000.0001) // =======================================================
(PID.TID 0000.0001) // Begin MONITOR dynamic field statistics
(PID.TID 0000.0001) // =======================================================
(PID.TID 0000.0001) %MON time_tsnumber                =                   819
(PID.TID 0000.0001) %MON time_secondsf                =   8.1900000000000E+04
(PID.TID 0000.0001) %MON dynstat_eta_max              =   5.7967158717997E+00
(PID.TID 0000.0001) %MON dynstat_eta_min              =  -1.4195139187368E+01
(PID.TID 0000.0001) %MON dynstat_eta_mean             =  -2.5058232838741E+00
(PID.TID 0000.0001) %MON dynstat_eta_sd               =   4.9505418692933E+00
(PID.TID 0000.0001) %MON dynstat_eta_del2             =   2.0714524437415E-01
(PID.TID 0000.0001) %MON dynstat_uvel_max             =   2.8060649727202E-03
(PID.TID 0000.0001) %MON dynstat_uvel_min             =  -1.2544982681952E-02
(PID.TID 0000.0001) %MON dynstat_uvel_mean            =  -1.1747064523317E-07
(PID.TID 0000.0001) %MON dynstat_uvel_sd              =   3.7494825237489E-04
(PID.TID 0000.0001) %MON dynstat_uvel_del2            =   6.0501379247258E-07
(PID.TID 0000.0001) %MON dynstat_vvel_max             =   1.0199083557447E-02
(PID.TID 0000.0001) %MON dynstat_vvel_min             =  -4.8309347937563E-03
(PID.TID 0000.0001) %MON dynstat_vvel_mean            =   1.4931768372148E-05
(PID.TID 0000.0001) %MON dynstat_vvel_sd              =   2.5461541320701E-04
(PID.TID 0000.0001) %MON dynstat_vvel_del2            =   5.3298481447175E-07
(PID.TID 0000.0001) %MON dynstat_wvel_max             =   4.6726291627324E-04
(PID.TID 0000.0001) %MON dynstat_wvel_min             =  -4.7056796828783E-04
(PID.TID 0000.0001) %MON dynstat_wvel_mean            =   6.6103470401125E-09
(PID.TID 0000.0001) %MON dynstat_wvel_sd              =   1.5856022404609E-05
(PID.TID 0000.0001) %MON dynstat_wvel_del2            =   6.0315396014902E-08
(PID.TID 0000.0001) %MON dynstat_theta_max            =   1.2000000000000E+00
(PID.TID 0000.0001) %MON dynstat_theta_min            =  -1.0000000000000E+00
(PID.TID 0000.0001) %MON dynstat_theta_mean           =   5.6889398661652E-01
(PID.TID 0000.0001) %MON dynstat_theta_sd             =   8.6847136799471E-01
(PID.TID 0000.0001) %MON dynstat_theta_del2           =   1.6680211933559E-06
(PID.TID 0000.0001) %MON dynstat_salt_max             =   3.4700000000000E+01
(PID.TID 0000.0001) %MON dynstat_salt_min             =   3.4000000000000E+01
(PID.TID 0000.0001) %MON dynstat_salt_mean            =   3.4499171767941E+01
(PID.TID 0000.0001) %MON dynstat_salt_sd              =   2.7632451941020E-01
(PID.TID 0000.0001) %MON dynstat_salt_del2            =   6.5145213737452E-07
(PID.TID 0000.0001) %MON advcfl_uvel_max              =   1.2544982681952E-03
(PID.TID 0000.0001) %MON advcfl_vvel_max              =   1.0199083557447E-03
(PID.TID 0000.0001) %MON advcfl_wvel_max              =   2.3528398414392E-03
(PID.TID 0000.0001) %MON advcfl_W_hf_max              =   2.3528398414392E-03
(PID.TID 0000.0001) %MON pe_b_mean                    =  -8.3044494809827E-01
(PID.TID 0000.0001) %MON ke_max                       =   4.6513136803690E-05
(PID.TID 0000.0001) %MON ke_mean                      =   1.0142277618274E-07
(PID.TID 0000.0001) %MON ke_vol                       =   4.2724954810246E+12
(PID.TID 0000.0001) // =======================================================
(PID.TID 0000.0001) // End MONITOR dynamic field statistics
(PID.TID 0000.0001) // =======================================================
(PID.TID 0000.0001) // =======================================================
(PID.TID 0000.0001) // Begin OBCS MONITOR field statistics
(PID.TID 0000.0001) // =======================================================
(PID.TID 0000.0001) %MON obc_N_vVel_max               =   1.4695336786491E-05
(PID.TID 0000.0001) %MON obc_N_vVel_min               =   1.4695336786491E-05
(PID.TID 0000.0001) %MON obc_N_vVel_mean              =   1.4695336786491E-05
(PID.TID 0000.0001) %MON obc_N_vVel_sd                =   1.8749713606747E-12
(PID.TID 0000.0001) %MON obc_N_vVel_Int               =   9.6989222790841E+02
(PID.TID 0000.0001) // =======================================================
(PID.TID 0000.0001) // End OBCS MONITOR field statistics
(PID.TID 0000.0001) // =======================================================
 cg2d: Sum(rhs),rhsMax =   4.51175625600223E+00  2.99916700998238E+02
(PID.TID 0000.0001)      cg2d_init_res =   5.98442226743196E-06
(PID.TID 0000.0001)      cg2d_iters(min,last) =      -1      78
(PID.TID 0000.0001)      cg2d_last_res =   9.48182846537890E-12
(PID.TID 0000.0001) // =======================================================
(PID.TID 0000.0001) // Begin MONITOR dynamic field statistics
(PID.TID 0000.0001) // =======================================================
(PID.TID 0000.0001) %MON time_tsnumber                =                   820
(PID.TID 0000.0001) %MON time_secondsf                =   8.2000000000000E+04
(PID.TID 0000.0001) %MON dynstat_eta_max              =   5.7967078862777E+00
(PID.TID 0000.0001) %MON dynstat_eta_min              =  -1.4195162793016E+01
(PID.TID 0000.0001) %MON dynstat_eta_mean             =  -2.5058352814969E+00
(PID.TID 0000.0001) %MON dynstat_eta_sd               =   4.9505459645773E+00
(PID.TID 0000.0001) %MON dynstat_eta_del2             =   2.0714526197276E-01
(PID.TID 0000.0001) %MON dynstat_uvel_max             =   2.8139550224147E-03
(PID.TID 0000.0001) %MON dynstat_uvel_min             =  -1.2580407919600E-02
(PID.TID 0000.0001) %MON dynstat_uvel_mean            =  -1.1747732387215E-07
(PID.TID 0000.0001) %MON dynstat_uvel_sd              =   3.7591124191376E-04
(PID.TID 0000.0001) %MON dynstat_uvel_del2            =   6.0623313298760E-07
(PID.TID 0000.0001) %MON dynstat_vvel_max             =   1.0226616608553E-02
(PID.TID 0000.0001) %MON dynstat_vvel_min             =  -4.8408449291824E-03
(PID.TID 0000.0001) %MON dynstat_vvel_mean            =   1.4929793740066E-05
(PID.TID 0000.0001) %MON dynstat_vvel_sd              =   2.5514725368644E-04
(PID.TID 0000.0001) %MON dynstat_vvel_del2            =   5.3360120630026E-07
(PID.TID 0000.0001) %MON dynstat_wvel_max             =   4.6873556209670E-04
(PID.TID 0000.0001) %MON dynstat_wvel_min             =  -4.7191981866578E-04
(PID.TID 0000.0001) %MON dynstat_wvel_mean            =   6.6089304089613E-09
(PID.TID 0000.0001) %MON dynstat_wvel_sd              =   1.5763352361179E-05
(PID.TID 0000.0001) %MON dynstat_wvel_del2            =   5.9338035170261E-08
(PID.TID 0000.0001) %MON dynstat_theta_max            =   1.2000000000000E+00
(PID.TID 0000.0001) %MON dynstat_theta_min            =  -1.0000000000000E+00
(PID.TID 0000.0001) %MON dynstat_theta_mean           =   5.6889347144338E-01
(PID.TID 0000.0001) %MON dynstat_theta_sd             =   8.6847108358664E-01
(PID.TID 0000.0001) %MON dynstat_theta_del2           =   1.6712013185538E-06
(PID.TID 0000.0001) %MON dynstat_salt_max             =   3.4700000000000E+01
(PID.TID 0000.0001) %MON dynstat_salt_min             =   3.4000000000000E+01
(PID.TID 0000.0001) %MON dynstat_salt_mean            =   3.4499171561911E+01
(PID.TID 0000.0001) %MON dynstat_salt_sd              =   2.7632441108349E-01
(PID.TID 0000.0001) %MON dynstat_salt_del2            =   6.5273469262471E-07
(PID.TID 0000.0001) %MON advcfl_uvel_max              =   1.2580407919600E-03
(PID.TID 0000.0001) %MON advcfl_vvel_max              =   1.0226616608553E-03
(PID.TID 0000.0001) %MON advcfl_wvel_max              =   2.3595990933289E-03
(PID.TID 0000.0001) %MON advcfl_W_hf_max              =   2.3595990933289E-03
(PID.TID 0000.0001) %MON pe_b_mean                    =  -8.3044827264409E-01
(PID.TID 0000.0001) %MON ke_max                       =   4.6797936519986E-05
(PID.TID 0000.0001) %MON ke_mean                      =   1.0191266356780E-07
(PID.TID 0000.0001) %MON ke_vol                       =   4.2724954096938E+12
(PID.TID 0000.0001) // =======================================================
(PID.TID 0000.0001) // End MONITOR dynamic field statistics
(PID.TID 0000.0001) // =======================================================
(PID.TID 0000.0001) // =======================================================
(PID.TID 0000.0001) // Begin OBCS MONITOR field statistics
(PID.TID 0000.0001) // =======================================================
(PID.TID 0000.0001) %MON obc_N_vVel_max               =   1.4693477764784E-05
(PID.TID 0000.0001) %MON obc_N_vVel_min               =   1.4693477764783E-05
(PID.TID 0000.0001) %MON obc_N_vVel_mean              =   1.4693477764783E-05
(PID.TID 0000.0001) %MON obc_N_vVel_sd                =   4.7504232533757E-12
(PID.TID 0000.0001) %MON obc_N_vVel_Int               =   9.6976953247568E+02
(PID.TID 0000.0001) // =======================================================
(PID.TID 0000.0001) // End OBCS MONITOR field statistics
(PID.TID 0000.0001) // =======================================================
 cg2d: Sum(rhs),rhsMax =   4.51177672329952E+00  2.99916775098138E+02
(PID.TID 0000.0001)      cg2d_init_res =   5.97743101049250E-06
(PID.TID 0000.0001)      cg2d_iters(min,last) =      -1      78
(PID.TID 0000.0001)      cg2d_last_res =   9.48063049854124E-12
(PID.TID 0000.0001) // =======================================================
(PID.TID 0000.0001) // Begin MONITOR dynamic field statistics
(PID.TID 0000.0001) // =======================================================
(PID.TID 0000.0001) %MON time_tsnumber                =                   821
(PID.TID 0000.0001) %MON time_secondsf                =   8.2100000000000E+04
(PID.TID 0000.0001) %MON dynstat_eta_max              =   5.7966999300930E+00
(PID.TID 0000.0001) %MON dynstat_eta_min              =  -1.4195186378603E+01
(PID.TID 0000.0001) %MON dynstat_eta_mean             =  -2.5058472681756E+00
(PID.TID 0000.0001) %MON dynstat_eta_sd               =   4.9505500569145E+00
(PID.TID 0000.0001) %MON dynstat_eta_del2             =   2.0714527961721E-01
(PID.TID 0000.0001) %MON dynstat_uvel_max             =   2.8218632865169E-03
(PID.TID 0000.0001) %MON dynstat_uvel_min             =  -1.2615908990320E-02
(PID.TID 0000.0001) %MON dynstat_uvel_mean            =  -1.1748412518165E-07
(PID.TID 0000.0001) %MON dynstat_uvel_sd              =   3.7687743013800E-04
(PID.TID 0000.0001) %MON dynstat_uvel_del2            =   6.0745560266476E-07
(PID.TID 0000.0001) %MON dynstat_vvel_max             =   1.0254202726876E-02
(PID.TID 0000.0001) %MON dynstat_vvel_min             =  -4.8507652536003E-03
(PID.TID 0000.0001) %MON dynstat_vvel_mean            =   1.4927847574917E-05
(PID.TID 0000.0001) %MON dynstat_vvel_sd              =   2.5568503425777E-04
(PID.TID 0000.0001) %MON dynstat_vvel_del2            =   5.3430067697090E-07
(PID.TID 0000.0001) %MON dynstat_wvel_max             =   4.7021173871972E-04
(PID.TID 0000.0001) %MON dynstat_wvel_min             =  -4.7327520050507E-04
(PID.TID 0000.0001) %MON dynstat_wvel_mean            =   6.6075904020097E-09
(PID.TID 0000.0001) %MON dynstat_wvel_sd              =   1.5694079477400E-05
(PID.TID 0000.0001) %MON dynstat_wvel_del2            =   5.8588373501485E-08
(PID.TID 0000.0001) %MON dynstat_theta_max            =   1.2000000000000E+00
(PID.TID 0000.0001) %MON dynstat_theta_min            =  -1.0000000000000E+00
(PID.TID 0000.0001) %MON dynstat_theta_mean           =   5.6889295527308E-01
(PID.TID 0000.0001) %MON dynstat_theta_sd             =   8.6847079860425E-01
(PID.TID 0000.0001) %MON dynstat_theta_del2           =   1.6743279317543E-06
(PID.TID 0000.0001) %MON dynstat_salt_max             =   3.4700000000000E+01
(PID.TID 0000.0001) %MON dynstat_salt_min             =   3.4000000000000E+01
(PID.TID 0000.0001) %MON dynstat_salt_mean            =   3.4499171355477E+01
(PID.TID 0000.0001) %MON dynstat_salt_sd              =   2.7632430253139E-01
(PID.TID 0000.0001) %MON dynstat_salt_del2            =   6.5400458079933E-07
(PID.TID 0000.0001) %MON advcfl_uvel_max              =   1.2615908990320E-03
(PID.TID 0000.0001) %MON advcfl_vvel_max              =   1.0254202726876E-03
(PID.TID 0000.0001) %MON advcfl_wvel_max              =   2.3663760025254E-03
(PID.TID 0000.0001) %MON advcfl_W_hf_max              =   2.3663760025254E-03
(PID.TID 0000.0001) %MON pe_b_mean                    =  -8.3045159363074E-01
(PID.TID 0000.0001) %MON ke_max                       =   4.7084336306677E-05
(PID.TID 0000.0001) %MON ke_mean                      =   1.0240644345119E-07
(PID.TID 0000.0001) %MON ke_vol                       =   4.2724953384279E+12
(PID.TID 0000.0001) // =======================================================
(PID.TID 0000.0001) // End MONITOR dynamic field statistics
(PID.TID 0000.0001) // =======================================================
(PID.TID 0000.0001) // =======================================================
(PID.TID 0000.0001) // Begin OBCS MONITOR field statistics
(PID.TID 0000.0001) // =======================================================
(PID.TID 0000.0001) %MON obc_N_vVel_max               =   1.4691640459095E-05
(PID.TID 0000.0001) %MON obc_N_vVel_min               =   1.4691640459095E-05
(PID.TID 0000.0001) %MON obc_N_vVel_mean              =   1.4691640459095E-05
(PID.TID 0000.0001) %MON obc_N_vVel_sd                =   2.1024382032132E-12
(PID.TID 0000.0001) %MON obc_N_vVel_Int               =   9.6964827030024E+02
(PID.TID 0000.0001) // =======================================================
(PID.TID 0000.0001) // End OBCS MONITOR field statistics
(PID.TID 0000.0001) // =======================================================
 cg2d: Sum(rhs),rhsMax =   4.51179717144060E+00  2.99916849160824E+02
(PID.TID 0000.0001)      cg2d_init_res =   5.97255891508937E-06
(PID.TID 0000.0001)      cg2d_iters(min,last) =      -1      78
(PID.TID 0000.0001)      cg2d_last_res =   9.47858786605772E-12
(PID.TID 0000.0001) // =======================================================
(PID.TID 0000.0001) // Begin MONITOR dynamic field statistics
(PID.TID 0000.0001) // =======================================================
(PID.TID 0000.0001) %MON time_tsnumber                =                   822
(PID.TID 0000.0001) %MON time_secondsf                =   8.2200000000000E+04
(PID.TID 0000.0001) %MON dynstat_eta_max              =   5.7966920032710E+00
(PID.TID 0000.0001) %MON dynstat_eta_min              =  -1.4195209944199E+01
(PID.TID 0000.0001) %MON dynstat_eta_mean             =  -2.5058592439096E+00
(PID.TID 0000.0001) %MON dynstat_eta_sd               =   4.9505541463107E+00
(PID.TID 0000.0001) %MON dynstat_eta_del2             =   2.0714529730766E-01
(PID.TID 0000.0001) %MON dynstat_uvel_max             =   2.8297897956726E-03
(PID.TID 0000.0001) %MON dynstat_uvel_min             =  -1.2651485885559E-02
(PID.TID 0000.0001) %MON dynstat_uvel_mean            =  -1.1749099192792E-07
(PID.TID 0000.0001) %MON dynstat_uvel_sd              =   3.7784681023212E-04
(PID.TID 0000.0001) %MON dynstat_uvel_del2            =   6.0868116013199E-07
(PID.TID 0000.0001) %MON dynstat_vvel_max             =   1.0281841943542E-02
(PID.TID 0000.0001) %MON dynstat_vvel_min             =  -4.8606957958190E-03
(PID.TID 0000.0001) %MON dynstat_vvel_mean            =   1.4925933274943E-05
(PID.TID 0000.0001) %MON dynstat_vvel_sd              =   2.5622986423191E-04
(PID.TID 0000.0001) %MON dynstat_vvel_del2            =   5.3510180162640E-07
(PID.TID 0000.0001) %MON dynstat_wvel_max             =   4.7169145246566E-04
(PID.TID 0000.0001) %MON dynstat_wvel_min             =  -4.7463412012653E-04
(PID.TID 0000.0001) %MON dynstat_wvel_mean            =   6.6063238602782E-09
(PID.TID 0000.0001) %MON dynstat_wvel_sd              =   1.5654359645866E-05
(PID.TID 0000.0001) %MON dynstat_wvel_del2            =   5.8140600312173E-08
(PID.TID 0000.0001) %MON dynstat_theta_max            =   1.2000000000000E+00
(PID.TID 0000.0001) %MON dynstat_theta_min            =  -1.0000000000000E+00
(PID.TID 0000.0001) %MON dynstat_theta_mean           =   5.6889243808984E-01
(PID.TID 0000.0001) %MON dynstat_theta_sd             =   8.6847051305397E-01
(PID.TID 0000.0001) %MON dynstat_theta_del2           =   1.6773874044315E-06
(PID.TID 0000.0001) %MON dynstat_salt_max             =   3.4700000000000E+01
(PID.TID 0000.0001) %MON dynstat_salt_min             =   3.4000000000000E+01
(PID.TID 0000.0001) %MON dynstat_salt_mean            =   3.4499171148632E+01
(PID.TID 0000.0001) %MON dynstat_salt_sd              =   2.7632419375587E-01
(PID.TID 0000.0001) %MON dynstat_salt_del2            =   6.5525827712825E-07
(PID.TID 0000.0001) %MON advcfl_uvel_max              =   1.2651485885559E-03
(PID.TID 0000.0001) %MON advcfl_vvel_max              =   1.0281841943542E-03
(PID.TID 0000.0001) %MON advcfl_wvel_max              =   2.3731706006327E-03
(PID.TID 0000.0001) %MON advcfl_W_hf_max              =   2.3731706006327E-03
(PID.TID 0000.0001) %MON pe_b_mean                    =  -8.3045491105703E-01
(PID.TID 0000.0001) %MON ke_max                       =   4.7372343493414E-05
(PID.TID 0000.0001) %MON ke_mean                      =   1.0290441624224E-07
(PID.TID 0000.0001) %MON ke_vol                       =   4.2724952672270E+12
(PID.TID 0000.0001) // =======================================================
(PID.TID 0000.0001) // End MONITOR dynamic field statistics
(PID.TID 0000.0001) // =======================================================
(PID.TID 0000.0001) // =======================================================
(PID.TID 0000.0001) // Begin OBCS MONITOR field statistics
(PID.TID 0000.0001) // =======================================================
(PID.TID 0000.0001) %MON obc_N_vVel_max               =   1.4689828714592E-05
(PID.TID 0000.0001) %MON obc_N_vVel_min               =   1.4689828714592E-05
(PID.TID 0000.0001) %MON obc_N_vVel_mean              =   1.4689828714592E-05
(PID.TID 0000.0001) %MON obc_N_vVel_sd                =   1.8260810070625E-12
(PID.TID 0000.0001) %MON obc_N_vVel_Int               =   9.6952869516305E+02
(PID.TID 0000.0001) // =======================================================
(PID.TID 0000.0001) // End OBCS MONITOR field statistics
(PID.TID 0000.0001) // =======================================================
 cg2d: Sum(rhs),rhsMax =   4.51181760040497E+00  2.99916923187643E+02
(PID.TID 0000.0001)      cg2d_init_res =   5.97026195084433E-06
(PID.TID 0000.0001)      cg2d_iters(min,last) =      -1      78
(PID.TID 0000.0001)      cg2d_last_res =   9.47671846903314E-12
(PID.TID 0000.0001) // =======================================================
(PID.TID 0000.0001) // Begin MONITOR dynamic field statistics
(PID.TID 0000.0001) // =======================================================
(PID.TID 0000.0001) %MON time_tsnumber                =                   823
(PID.TID 0000.0001) %MON time_secondsf                =   8.2300000000000E+04
(PID.TID 0000.0001) %MON dynstat_eta_max              =   5.7966841058341E+00
(PID.TID 0000.0001) %MON dynstat_eta_min              =  -1.4195233489878E+01
(PID.TID 0000.0001) %MON dynstat_eta_mean             =  -2.5058712086987E+00
(PID.TID 0000.0001) %MON dynstat_eta_sd               =   4.9505582327743E+00
(PID.TID 0000.0001) %MON dynstat_eta_del2             =   2.0714531504445E-01
(PID.TID 0000.0001) %MON dynstat_uvel_max             =   2.8377345806092E-03
(PID.TID 0000.0001) %MON dynstat_uvel_min             =  -1.2687138595787E-02
(PID.TID 0000.0001) %MON dynstat_uvel_mean            =  -1.1749788698752E-07
(PID.TID 0000.0001) %MON dynstat_uvel_sd              =   3.7881937707830E-04
(PID.TID 0000.0001) %MON dynstat_uvel_del2            =   6.0990978256183E-07
(PID.TID 0000.0001) %MON dynstat_vvel_max             =   1.0309534289169E-02
(PID.TID 0000.0001) %MON dynstat_vvel_min             =  -4.8706365846396E-03
(PID.TID 0000.0001) %MON dynstat_vvel_mean            =   1.4924053704542E-05
(PID.TID 0000.0001) %MON dynstat_vvel_sd              =   2.5678232364218E-04
(PID.TID 0000.0001) %MON dynstat_vvel_del2            =   5.3601357539457E-07
(PID.TID 0000.0001) %MON dynstat_wvel_max             =   4.7317470961811E-04
(PID.TID 0000.0001) %MON dynstat_wvel_min             =  -4.7599658375358E-04
(PID.TID 0000.0001) %MON dynstat_wvel_mean            =   6.6051273790825E-09
(PID.TID 0000.0001) %MON dynstat_wvel_sd              =   1.5647410206495E-05
(PID.TID 0000.0001) %MON dynstat_wvel_del2            =   5.8037220626873E-08
(PID.TID 0000.0001) %MON dynstat_theta_max            =   1.2000000000000E+00
(PID.TID 0000.0001) %MON dynstat_theta_min            =  -1.0000000000000E+00
(PID.TID 0000.0001) %MON dynstat_theta_mean           =   5.6889191987643E-01
(PID.TID 0000.0001) %MON dynstat_theta_sd             =   8.6847022693372E-01
(PID.TID 0000.0001) %MON dynstat_theta_del2           =   1.6803756430779E-06
(PID.TID 0000.0001) %MON dynstat_salt_max             =   3.4700000000000E+01
(PID.TID 0000.0001) %MON dynstat_salt_min             =   3.4000000000000E+01
(PID.TID 0000.0001) %MON dynstat_salt_mean            =   3.4499170941372E+01
(PID.TID 0000.0001) %MON dynstat_salt_sd              =   2.7632408475599E-01
(PID.TID 0000.0001) %MON dynstat_salt_del2            =   6.5649469784094E-07
(PID.TID 0000.0001) %MON advcfl_uvel_max              =   1.2687138595787E-03
(PID.TID 0000.0001) %MON advcfl_vvel_max              =   1.0309534289169E-03
(PID.TID 0000.0001) %MON advcfl_wvel_max              =   2.3799829187679E-03
(PID.TID 0000.0001) %MON advcfl_W_hf_max              =   2.3799829187679E-03
(PID.TID 0000.0001) %MON pe_b_mean                    =  -8.3045822492182E-01
(PID.TID 0000.0001) %MON ke_max                       =   4.7661965428982E-05
(PID.TID 0000.0001) %MON ke_mean                      =   1.0340674963145E-07
(PID.TID 0000.0001) %MON ke_vol                       =   4.2724951960912E+12
(PID.TID 0000.0001) // =======================================================
(PID.TID 0000.0001) // End MONITOR dynamic field statistics
(PID.TID 0000.0001) // =======================================================
(PID.TID 0000.0001) // =======================================================
(PID.TID 0000.0001) // Begin OBCS MONITOR field statistics
(PID.TID 0000.0001) // =======================================================
(PID.TID 0000.0001) %MON obc_N_vVel_max               =   1.4688045937187E-05
(PID.TID 0000.0001) %MON obc_N_vVel_min               =   1.4688045937186E-05
(PID.TID 0000.0001) %MON obc_N_vVel_mean              =   1.4688045937186E-05
(PID.TID 0000.0001) %MON obc_N_vVel_sd                =   3.9085792736094E-12
(PID.TID 0000.0001) %MON obc_N_vVel_Int               =   9.6941103185431E+02
(PID.TID 0000.0001) // =======================================================
(PID.TID 0000.0001) // End OBCS MONITOR field statistics
(PID.TID 0000.0001) // =======================================================
 cg2d: Sum(rhs),rhsMax =   4.51183801017695E+00  2.99916997180184E+02
(PID.TID 0000.0001)      cg2d_init_res =   5.97074442584280E-06
(PID.TID 0000.0001)      cg2d_iters(min,last) =      -1      78
(PID.TID 0000.0001)      cg2d_last_res =   9.47573454574705E-12
(PID.TID 0000.0001) // =======================================================
(PID.TID 0000.0001) // Begin MONITOR dynamic field statistics
(PID.TID 0000.0001) // =======================================================
(PID.TID 0000.0001) %MON time_tsnumber                =                   824
(PID.TID 0000.0001) %MON time_secondsf                =   8.2400000000000E+04
(PID.TID 0000.0001) %MON dynstat_eta_max              =   5.7966762378060E+00
(PID.TID 0000.0001) %MON dynstat_eta_min              =  -1.4195257015728E+01
(PID.TID 0000.0001) %MON dynstat_eta_mean             =  -2.5058831625476E+00
(PID.TID 0000.0001) %MON dynstat_eta_sd               =   4.9505623163096E+00
(PID.TID 0000.0001) %MON dynstat_eta_del2             =   2.0714533282771E-01
(PID.TID 0000.0001) %MON dynstat_uvel_max             =   2.8456976720932E-03
(PID.TID 0000.0001) %MON dynstat_uvel_min             =  -1.2722867110664E-02
(PID.TID 0000.0001) %MON dynstat_uvel_mean            =  -1.1750477938540E-07
(PID.TID 0000.0001) %MON dynstat_uvel_sd              =   3.7979512737268E-04
(PID.TID 0000.0001) %MON dynstat_uvel_del2            =   6.1114146625799E-07
(PID.TID 0000.0001) %MON dynstat_vvel_max             =   1.0337279793750E-02
(PID.TID 0000.0001) %MON dynstat_vvel_min             =  -4.8805876489686E-03
(PID.TID 0000.0001) %MON dynstat_vvel_mean            =   1.4922211382194E-05
(PID.TID 0000.0001) %MON dynstat_vvel_sd              =   2.5734242190128E-04
(PID.TID 0000.0001) %MON dynstat_vvel_del2            =   5.3703474248006E-07
(PID.TID 0000.0001) %MON dynstat_wvel_max             =   4.7466151645253E-04
(PID.TID 0000.0001) %MON dynstat_wvel_min             =  -4.7736259762845E-04
(PID.TID 0000.0001) %MON dynstat_wvel_mean            =   6.6039981538492E-09
(PID.TID 0000.0001) %MON dynstat_wvel_sd              =   1.5673178570079E-05
(PID.TID 0000.0001) %MON dynstat_wvel_del2            =   5.8282716849243E-08
(PID.TID 0000.0001) %MON dynstat_theta_max            =   1.2000000000000E+00
(PID.TID 0000.0001) %MON dynstat_theta_min            =  -1.0000000000000E+00
(PID.TID 0000.0001) %MON dynstat_theta_mean           =   5.6889140061495E-01
(PID.TID 0000.0001) %MON dynstat_theta_sd             =   8.6846994023853E-01
(PID.TID 0000.0001) %MON dynstat_theta_del2           =   1.6832979333869E-06
(PID.TID 0000.0001) %MON dynstat_salt_max             =   3.4700000000000E+01
(PID.TID 0000.0001) %MON dynstat_salt_min             =   3.4000000000000E+01
(PID.TID 0000.0001) %MON dynstat_salt_mean            =   3.4499170733689E+01
(PID.TID 0000.0001) %MON dynstat_salt_sd              =   2.7632397553025E-01
(PID.TID 0000.0001) %MON dynstat_salt_del2            =   6.5771525825562E-07
(PID.TID 0000.0001) %MON advcfl_uvel_max              =   1.2722867110664E-03
(PID.TID 0000.0001) %MON advcfl_vvel_max              =   1.0337279793750E-03
(PID.TID 0000.0001) %MON advcfl_wvel_max              =   2.3868129881423E-03
(PID.TID 0000.0001) %MON advcfl_W_hf_max              =   2.3868129881423E-03
(PID.TID 0000.0001) %MON pe_b_mean                    =  -8.3046153522457E-01
(PID.TID 0000.0001) %MON ke_max                       =   4.7953209480930E-05
(PID.TID 0000.0001) %MON ke_mean                      =   1.0391346660540E-07
(PID.TID 0000.0001) %MON ke_vol                       =   4.2724951250203E+12
(PID.TID 0000.0001) // =======================================================
(PID.TID 0000.0001) // End MONITOR dynamic field statistics
(PID.TID 0000.0001) // =======================================================
(PID.TID 0000.0001) // =======================================================
(PID.TID 0000.0001) // Begin OBCS MONITOR field statistics
(PID.TID 0000.0001) // =======================================================
(PID.TID 0000.0001) %MON obc_N_vVel_max               =   1.4686295243303E-05
(PID.TID 0000.0001) %MON obc_N_vVel_min               =   1.4686295243303E-05
(PID.TID 0000.0001) %MON obc_N_vVel_mean              =   1.4686295243303E-05
(PID.TID 0000.0001) %MON obc_N_vVel_sd                =   3.3571320864743E-12
(PID.TID 0000.0001) %MON obc_N_vVel_Int               =   9.6929548605798E+02
(PID.TID 0000.0001) // =======================================================
(PID.TID 0000.0001) // End OBCS MONITOR field statistics
(PID.TID 0000.0001) // =======================================================
 cg2d: Sum(rhs),rhsMax =   4.51185840074712E+00  2.99917071140322E+02
(PID.TID 0000.0001)      cg2d_init_res =   5.97394953607174E-06
(PID.TID 0000.0001)      cg2d_iters(min,last) =      -1      78
(PID.TID 0000.0001)      cg2d_last_res =   9.47619011700241E-12
(PID.TID 0000.0001) // =======================================================
(PID.TID 0000.0001) // Begin MONITOR dynamic field statistics
(PID.TID 0000.0001) // =======================================================
(PID.TID 0000.0001) %MON time_tsnumber                =                   825
(PID.TID 0000.0001) %MON time_secondsf                =   8.2500000000000E+04
(PID.TID 0000.0001) %MON dynstat_eta_max              =   5.7966683992092E+00
(PID.TID 0000.0001) %MON dynstat_eta_min              =  -1.4195280521816E+01
(PID.TID 0000.0001) %MON dynstat_eta_mean             =  -2.5058951054665E+00
(PID.TID 0000.0001) %MON dynstat_eta_sd               =   4.9505663969224E+00
(PID.TID 0000.0001) %MON dynstat_eta_del2             =   2.0714535065752E-01
(PID.TID 0000.0001) %MON dynstat_uvel_max             =   2.8536791007596E-03
(PID.TID 0000.0001) %MON dynstat_uvel_min             =  -1.2758671419039E-02
(PID.TID 0000.0001) %MON dynstat_uvel_mean            =  -1.1751164539249E-07
(PID.TID 0000.0001) %MON dynstat_uvel_sd              =   3.8077405964676E-04
(PID.TID 0000.0001) %MON dynstat_uvel_del2            =   6.1237622597967E-07
(PID.TID 0000.0001) %MON dynstat_vvel_max             =   1.0365078486849E-02
(PID.TID 0000.0001) %MON dynstat_vvel_min             =  -4.8905490175670E-03
(PID.TID 0000.0001) %MON dynstat_vvel_mean            =   1.4920408723332E-05
(PID.TID 0000.0001) %MON dynstat_vvel_sd              =   2.5790961081198E-04
(PID.TID 0000.0001) %MON dynstat_vvel_del2            =   5.3815411659428E-07
(PID.TID 0000.0001) %MON dynstat_wvel_max             =   4.7615187921106E-04
(PID.TID 0000.0001) %MON dynstat_wvel_min             =  -4.7873216793369E-04
(PID.TID 0000.0001) %MON dynstat_wvel_mean            =   6.6029340700781E-09
(PID.TID 0000.0001) %MON dynstat_wvel_sd              =   1.5728393782507E-05
(PID.TID 0000.0001) %MON dynstat_wvel_del2            =   5.8843186559861E-08
(PID.TID 0000.0001) %MON dynstat_theta_max            =   1.2000000000000E+00
(PID.TID 0000.0001) %MON dynstat_theta_min            =  -1.0000000000000E+00
(PID.TID 0000.0001) %MON dynstat_theta_mean           =   5.6889088028741E-01
(PID.TID 0000.0001) %MON dynstat_theta_sd             =   8.6846965295771E-01
(PID.TID 0000.0001) %MON dynstat_theta_del2           =   1.6861686853770E-06
(PID.TID 0000.0001) %MON dynstat_salt_max             =   3.4700000000000E+01
(PID.TID 0000.0001) %MON dynstat_salt_min             =   3.4000000000000E+01
(PID.TID 0000.0001) %MON dynstat_salt_mean            =   3.4499170525578E+01
(PID.TID 0000.0001) %MON dynstat_salt_sd              =   2.7632386607507E-01
(PID.TID 0000.0001) %MON dynstat_salt_del2            =   6.5892370715358E-07
(PID.TID 0000.0001) %MON advcfl_uvel_max              =   1.2758671419039E-03
(PID.TID 0000.0001) %MON advcfl_vvel_max              =   1.0365078486849E-03
(PID.TID 0000.0001) %MON advcfl_wvel_max              =   2.3936608396684E-03
(PID.TID 0000.0001) %MON advcfl_W_hf_max              =   2.3936608396684E-03
(PID.TID 0000.0001) %MON pe_b_mean                    =  -8.3046484196608E-01
(PID.TID 0000.0001) %MON ke_max                       =   4.8246083036069E-05
(PID.TID 0000.0001) %MON ke_mean                      =   1.0442444724679E-07
(PID.TID 0000.0001) %MON ke_vol                       =   4.2724950540145E+12
(PID.TID 0000.0001) // =======================================================
(PID.TID 0000.0001) // End MONITOR dynamic field statistics
(PID.TID 0000.0001) // =======================================================
(PID.TID 0000.0001) // =======================================================
(PID.TID 0000.0001) // Begin OBCS MONITOR field statistics
(PID.TID 0000.0001) // =======================================================
(PID.TID 0000.0001) %MON obc_N_vVel_max               =   1.4684579626180E-05
(PID.TID 0000.0001) %MON obc_N_vVel_min               =   1.4684579626180E-05
(PID.TID 0000.0001) %MON obc_N_vVel_mean              =   1.4684579626180E-05
(PID.TID 0000.0001) %MON obc_N_vVel_sd                =  -1.2356010400011E-23
(PID.TID 0000.0001) %MON obc_N_vVel_Int               =   9.6918225532788E+02
(PID.TID 0000.0001) // =======================================================
(PID.TID 0000.0001) // End OBCS MONITOR field statistics
(PID.TID 0000.0001) // =======================================================
 cg2d: Sum(rhs),rhsMax =   4.51187877210136E+00  2.99917145070230E+02
(PID.TID 0000.0001)      cg2d_init_res =   5.97955537006572E-06
(PID.TID 0000.0001)      cg2d_iters(min,last) =      -1      78
(PID.TID 0000.0001)      cg2d_last_res =   9.47836876349615E-12
(PID.TID 0000.0001) // =======================================================
(PID.TID 0000.0001) // Begin MONITOR dynamic field statistics
(PID.TID 0000.0001) // =======================================================
(PID.TID 0000.0001) %MON time_tsnumber                =                   826
(PID.TID 0000.0001) %MON time_secondsf                =   8.2600000000000E+04
(PID.TID 0000.0001) %MON dynstat_eta_max              =   5.7966605900647E+00
(PID.TID 0000.0001) %MON dynstat_eta_min              =  -1.4195304008242E+01
(PID.TID 0000.0001) %MON dynstat_eta_mean             =  -2.5059070374659E+00
(PID.TID 0000.0001) %MON dynstat_eta_sd               =   4.9505704746160E+00
(PID.TID 0000.0001) %MON dynstat_eta_del2             =   2.0714536853387E-01
(PID.TID 0000.0001) %MON dynstat_uvel_max             =   2.8616788973252E-03
(PID.TID 0000.0001) %MON dynstat_uvel_min             =  -1.2794551508740E-02
(PID.TID 0000.0001) %MON dynstat_uvel_mean            =  -1.1751847793404E-07
(PID.TID 0000.0001) %MON dynstat_uvel_sd              =   3.8175617422959E-04
(PID.TID 0000.0001) %MON dynstat_uvel_del2            =   6.1361409338997E-07
(PID.TID 0000.0001) %MON dynstat_vvel_max             =   1.0392930397582E-02
(PID.TID 0000.0001) %MON dynstat_vvel_min             =  -4.9005207192563E-03
(PID.TID 0000.0001) %MON dynstat_vvel_mean            =   1.4918648283826E-05
(PID.TID 0000.0001) %MON dynstat_vvel_sd              =   2.5848284948323E-04
(PID.TID 0000.0001) %MON dynstat_vvel_del2            =   5.3935184360526E-07
(PID.TID 0000.0001) %MON dynstat_wvel_max             =   4.7764580412751E-04
(PID.TID 0000.0001) %MON dynstat_wvel_min             =  -4.8010530079658E-04
(PID.TID 0000.0001) %MON dynstat_wvel_mean            =   6.6019348360859E-09
(PID.TID 0000.0001) %MON dynstat_wvel_sd              =   1.5806989728965E-05
(PID.TID 0000.0001) %MON dynstat_wvel_del2            =   5.9652099948184E-08
(PID.TID 0000.0001) %MON dynstat_theta_max            =   1.2000000000000E+00
(PID.TID 0000.0001) %MON dynstat_theta_min            =  -1.0000000000000E+00
(PID.TID 0000.0001) %MON dynstat_theta_mean           =   5.6889035887528E-01
(PID.TID 0000.0001) %MON dynstat_theta_sd             =   8.6846936508564E-01
(PID.TID 0000.0001) %MON dynstat_theta_del2           =   1.6890098025364E-06
(PID.TID 0000.0001) %MON dynstat_salt_max             =   3.4700000000000E+01
(PID.TID 0000.0001) %MON dynstat_salt_min             =   3.4000000000000E+01
(PID.TID 0000.0001) %MON dynstat_salt_mean            =   3.4499170317033E+01
(PID.TID 0000.0001) %MON dynstat_salt_sd              =   2.7632375638850E-01
(PID.TID 0000.0001) %MON dynstat_salt_del2            =   6.6012572019704E-07
(PID.TID 0000.0001) %MON advcfl_uvel_max              =   1.2794551508740E-03
(PID.TID 0000.0001) %MON advcfl_vvel_max              =   1.0392930397582E-03
(PID.TID 0000.0001) %MON advcfl_wvel_max              =   2.4005265039829E-03
(PID.TID 0000.0001) %MON advcfl_W_hf_max              =   2.4005265039829E-03
(PID.TID 0000.0001) %MON pe_b_mean                    =  -8.3046814514685E-01
(PID.TID 0000.0001) %MON ke_max                       =   4.8540593500490E-05
(PID.TID 0000.0001) %MON ke_mean                      =   1.0493944391090E-07
(PID.TID 0000.0001) %MON ke_vol                       =   4.2724949830735E+12
(PID.TID 0000.0001) // =======================================================
(PID.TID 0000.0001) // End MONITOR dynamic field statistics
(PID.TID 0000.0001) // =======================================================
(PID.TID 0000.0001) // =======================================================
(PID.TID 0000.0001) // Begin OBCS MONITOR field statistics
(PID.TID 0000.0001) // =======================================================
(PID.TID 0000.0001) %MON obc_N_vVel_max               =   1.4682902095735E-05
(PID.TID 0000.0001) %MON obc_N_vVel_min               =   1.4682902095735E-05
(PID.TID 0000.0001) %MON obc_N_vVel_mean              =   1.4682902095735E-05
(PID.TID 0000.0001) %MON obc_N_vVel_sd                =   4.9892851751546E-12
(PID.TID 0000.0001) %MON obc_N_vVel_Int               =   9.6907153831850E+02
(PID.TID 0000.0001) // =======================================================
(PID.TID 0000.0001) // End OBCS MONITOR field statistics
(PID.TID 0000.0001) // =======================================================
 cg2d: Sum(rhs),rhsMax =   4.51189912422934E+00  2.99917218972451E+02
(PID.TID 0000.0001)      cg2d_init_res =   5.98702454056602E-06
(PID.TID 0000.0001)      cg2d_iters(min,last) =      -1      78
(PID.TID 0000.0001)      cg2d_last_res =   9.48246187349212E-12
(PID.TID 0000.0001) // =======================================================
(PID.TID 0000.0001) // Begin MONITOR dynamic field statistics
(PID.TID 0000.0001) // =======================================================
(PID.TID 0000.0001) %MON time_tsnumber                =                   827
(PID.TID 0000.0001) %MON time_secondsf                =   8.2700000000000E+04
(PID.TID 0000.0001) %MON dynstat_eta_max              =   5.7966528103959E+00
(PID.TID 0000.0001) %MON dynstat_eta_min              =  -1.4195327475090E+01
(PID.TID 0000.0001) %MON dynstat_eta_mean             =  -2.5059189585613E+00
(PID.TID 0000.0001) %MON dynstat_eta_sd               =   4.9505745493968E+00
(PID.TID 0000.0001) %MON dynstat_eta_del2             =   2.0714538645679E-01
(PID.TID 0000.0001) %MON dynstat_uvel_max             =   2.8696970924003E-03
(PID.TID 0000.0001) %MON dynstat_uvel_min             =  -1.2830507366978E-02
(PID.TID 0000.0001) %MON dynstat_uvel_mean            =  -1.1752527822802E-07
(PID.TID 0000.0001) %MON dynstat_uvel_sd              =   3.8274147313268E-04
(PID.TID 0000.0001) %MON dynstat_uvel_del2            =   6.1485511496984E-07
(PID.TID 0000.0001) %MON dynstat_vvel_max             =   1.0420835554628E-02
(PID.TID 0000.0001) %MON dynstat_vvel_min             =  -4.9105027826348E-03
(PID.TID 0000.0001) %MON dynstat_vvel_mean            =   1.4916933046699E-05
(PID.TID 0000.0001) %MON dynstat_vvel_sd              =   2.5906071389726E-04
(PID.TID 0000.0001) %MON dynstat_vvel_del2            =   5.4060146204280E-07
(PID.TID 0000.0001) %MON dynstat_wvel_max             =   4.7914329739846E-04
(PID.TID 0000.0001) %MON dynstat_wvel_min             =  -4.8148200236305E-04
(PID.TID 0000.0001) %MON dynstat_wvel_mean            =   6.6010024164587E-09
(PID.TID 0000.0001) %MON dynstat_wvel_sd              =   1.5900824266655E-05
(PID.TID 0000.0001) %MON dynstat_wvel_del2            =   6.0620450559609E-08
(PID.TID 0000.0001) %MON dynstat_theta_max            =   1.2000000000000E+00
(PID.TID 0000.0001) %MON dynstat_theta_min            =  -1.0000000000000E+00
(PID.TID 0000.0001) %MON dynstat_theta_mean           =   5.6888983636052E-01
(PID.TID 0000.0001) %MON dynstat_theta_sd             =   8.6846907661902E-01
(PID.TID 0000.0001) %MON dynstat_theta_del2           =   1.6918485512814E-06
(PID.TID 0000.0001) %MON dynstat_salt_max             =   3.4700000000000E+01
(PID.TID 0000.0001) %MON dynstat_salt_min             =   3.4000000000000E+01
(PID.TID 0000.0001) %MON dynstat_salt_mean            =   3.4499170108048E+01
(PID.TID 0000.0001) %MON dynstat_salt_sd              =   2.7632364646951E-01
(PID.TID 0000.0001) %MON dynstat_salt_del2            =   6.6132835312939E-07
(PID.TID 0000.0001) %MON advcfl_uvel_max              =   1.2830507366978E-03
(PID.TID 0000.0001) %MON advcfl_vvel_max              =   1.0420835554628E-03
(PID.TID 0000.0001) %MON advcfl_wvel_max              =   2.4074100118152E-03
(PID.TID 0000.0001) %MON advcfl_W_hf_max              =   2.4074100118152E-03
(PID.TID 0000.0001) %MON pe_b_mean                    =  -8.3047144476870E-01
(PID.TID 0000.0001) %MON ke_max                       =   4.8836748299638E-05
(PID.TID 0000.0001) %MON ke_mean                      =   1.0545810811423E-07
(PID.TID 0000.0001) %MON ke_vol                       =   4.2724949121975E+12
(PID.TID 0000.0001) // =======================================================
(PID.TID 0000.0001) // End MONITOR dynamic field statistics
(PID.TID 0000.0001) // =======================================================
(PID.TID 0000.0001) // =======================================================
(PID.TID 0000.0001) // Begin OBCS MONITOR field statistics
(PID.TID 0000.0001) // =======================================================
(PID.TID 0000.0001) %MON obc_N_vVel_max               =   1.4681265902836E-05
(PID.TID 0000.0001) %MON obc_N_vVel_min               =   1.4681265902836E-05
(PID.TID 0000.0001) %MON obc_N_vVel_mean              =   1.4681265902836E-05
(PID.TID 0000.0001) %MON obc_N_vVel_sd                =  -1.2511106764865E-23
(PID.TID 0000.0001) %MON obc_N_vVel_Int               =   9.6896354958720E+02
(PID.TID 0000.0001) // =======================================================
(PID.TID 0000.0001) // End OBCS MONITOR field statistics
(PID.TID 0000.0001) // =======================================================
 cg2d: Sum(rhs),rhsMax =   4.51191945712004E+00  2.99917292849861E+02
(PID.TID 0000.0001)      cg2d_init_res =   5.99565293120395E-06
(PID.TID 0000.0001)      cg2d_iters(min,last) =      -1      78
(PID.TID 0000.0001)      cg2d_last_res =   9.48858593992426E-12
(PID.TID 0000.0001) // =======================================================
(PID.TID 0000.0001) // Begin MONITOR dynamic field statistics
(PID.TID 0000.0001) // =======================================================
(PID.TID 0000.0001) %MON time_tsnumber                =                   828
(PID.TID 0000.0001) %MON time_secondsf                =   8.2800000000000E+04
(PID.TID 0000.0001) %MON dynstat_eta_max              =   5.7966450602178E+00
(PID.TID 0000.0001) %MON dynstat_eta_min              =  -1.4195350922454E+01
(PID.TID 0000.0001) %MON dynstat_eta_mean             =  -2.5059308687705E+00
(PID.TID 0000.0001) %MON dynstat_eta_sd               =   4.9505786212711E+00
(PID.TID 0000.0001) %MON dynstat_eta_del2             =   2.0714540442628E-01
(PID.TID 0000.0001) %MON dynstat_uvel_max             =   2.8777337164492E-03
(PID.TID 0000.0001) %MON dynstat_uvel_min             =  -1.2866538980163E-02
(PID.TID 0000.0001) %MON dynstat_uvel_mean            =  -1.1753204519215E-07
(PID.TID 0000.0001) %MON dynstat_uvel_sd              =   3.8372995989562E-04
(PID.TID 0000.0001) %MON dynstat_uvel_del2            =   6.1609934852958E-07
(PID.TID 0000.0001) %MON dynstat_vvel_max             =   1.0448793986346E-02
(PID.TID 0000.0001) %MON dynstat_vvel_min             =  -4.9204952363153E-03
(PID.TID 0000.0001) %MON dynstat_vvel_mean            =   1.4915266682817E-05
(PID.TID 0000.0001) %MON dynstat_vvel_sd              =   2.5964153978971E-04
(PID.TID 0000.0001) %MON dynstat_vvel_del2            =   5.4187254071314E-07
(PID.TID 0000.0001) %MON dynstat_wvel_max             =   4.8064436521356E-04
(PID.TID 0000.0001) %MON dynstat_wvel_min             =  -4.8286227873278E-04
(PID.TID 0000.0001) %MON dynstat_wvel_mean            =   6.6001414109175E-09
(PID.TID 0000.0001) %MON dynstat_wvel_sd              =   1.6000577006188E-05
(PID.TID 0000.0001) %MON dynstat_wvel_del2            =   6.1648629858242E-08
(PID.TID 0000.0001) %MON dynstat_theta_max            =   1.2000000000000E+00
(PID.TID 0000.0001) %MON dynstat_theta_min            =  -1.0000000000000E+00
(PID.TID 0000.0001) %MON dynstat_theta_mean           =   5.6888931272545E-01
(PID.TID 0000.0001) %MON dynstat_theta_sd             =   8.6846878756075E-01
(PID.TID 0000.0001) %MON dynstat_theta_del2           =   1.6947147039091E-06
(PID.TID 0000.0001) %MON dynstat_salt_max             =   3.4700000000000E+01
(PID.TID 0000.0001) %MON dynstat_salt_min             =   3.4000000000000E+01
(PID.TID 0000.0001) %MON dynstat_salt_mean            =   3.4499169898616E+01
(PID.TID 0000.0001) %MON dynstat_salt_sd              =   2.7632353631887E-01
(PID.TID 0000.0001) %MON dynstat_salt_del2            =   6.6253933267494E-07
(PID.TID 0000.0001) %MON advcfl_uvel_max              =   1.2866538980163E-03
(PID.TID 0000.0001) %MON advcfl_vvel_max              =   1.0448793986346E-03
(PID.TID 0000.0001) %MON advcfl_wvel_max              =   2.4143113936639E-03
(PID.TID 0000.0001) %MON advcfl_W_hf_max              =   2.4143113936639E-03
(PID.TID 0000.0001) %MON pe_b_mean                    =  -8.3047474083398E-01
(PID.TID 0000.0001) %MON ke_max                       =   4.9134554878407E-05
(PID.TID 0000.0001) %MON ke_mean                      =   1.0598002641139E-07
(PID.TID 0000.0001) %MON ke_vol                       =   4.2724948413861E+12
(PID.TID 0000.0001) // =======================================================
(PID.TID 0000.0001) // End MONITOR dynamic field statistics
(PID.TID 0000.0001) // =======================================================
(PID.TID 0000.0001) // =======================================================
(PID.TID 0000.0001) // Begin OBCS MONITOR field statistics
(PID.TID 0000.0001) // =======================================================
(PID.TID 0000.0001) %MON obc_N_vVel_max               =   1.4679674769273E-05
(PID.TID 0000.0001) %MON obc_N_vVel_min               =   1.4679674769272E-05
(PID.TID 0000.0001) %MON obc_N_vVel_mean              =   1.4679674769272E-05
(PID.TID 0000.0001) %MON obc_N_vVel_sd                =   4.3706638249980E-12
(PID.TID 0000.0001) %MON obc_N_vVel_Int               =   9.6885853477198E+02
(PID.TID 0000.0001) // =======================================================
(PID.TID 0000.0001) // End OBCS MONITOR field statistics
(PID.TID 0000.0001) // =======================================================
 cg2d: Sum(rhs),rhsMax =   4.51193977076905E+00  2.99917366705748E+02
(PID.TID 0000.0001)      cg2d_init_res =   6.00465611218005E-06
(PID.TID 0000.0001)      cg2d_iters(min,last) =      -1      78
(PID.TID 0000.0001)      cg2d_last_res =   9.49679965826675E-12
(PID.TID 0000.0001) // =======================================================
(PID.TID 0000.0001) // Begin MONITOR dynamic field statistics
(PID.TID 0000.0001) // =======================================================
(PID.TID 0000.0001) %MON time_tsnumber                =                   829
(PID.TID 0000.0001) %MON time_secondsf                =   8.2900000000000E+04
(PID.TID 0000.0001) %MON dynstat_eta_max              =   5.7966373395474E+00
(PID.TID 0000.0001) %MON dynstat_eta_min              =  -1.4195374350433E+01
(PID.TID 0000.0001) %MON dynstat_eta_mean             =  -2.5059427681185E+00
(PID.TID 0000.0001) %MON dynstat_eta_sd               =   4.9505826902524E+00
(PID.TID 0000.0001) %MON dynstat_eta_del2             =   2.0714542244251E-01
(PID.TID 0000.0001) %MON dynstat_uvel_max             =   2.8857887999010E-03
(PID.TID 0000.0001) %MON dynstat_uvel_min             =  -1.2902646333774E-02
(PID.TID 0000.0001) %MON dynstat_uvel_mean            =  -1.1753877929387E-07
(PID.TID 0000.0001) %MON dynstat_uvel_sd              =   3.8472163935633E-04
(PID.TID 0000.0001) %MON dynstat_uvel_del2            =   6.1734685992534E-07
(PID.TID 0000.0001) %MON dynstat_vvel_max             =   1.0476805720846E-02
(PID.TID 0000.0001) %MON dynstat_vvel_min             =  -4.9304981086271E-03
(PID.TID 0000.0001) %MON dynstat_vvel_mean            =   1.4913653815097E-05
(PID.TID 0000.0001) %MON dynstat_vvel_sd              =   2.6022358475345E-04
(PID.TID 0000.0001) %MON dynstat_vvel_del2            =   5.4313362445505E-07
(PID.TID 0000.0001) %MON dynstat_wvel_max             =   4.8214901373540E-04
(PID.TID 0000.0001) %MON dynstat_wvel_min             =  -4.8424613594117E-04
(PID.TID 0000.0001) %MON dynstat_wvel_mean            =   6.5993592472294E-09
(PID.TID 0000.0001) %MON dynstat_wvel_sd              =   1.6096698983122E-05
(PID.TID 0000.0001) %MON dynstat_wvel_del2            =   6.2637623978258E-08
(PID.TID 0000.0001) %MON dynstat_theta_max            =   1.2000000000000E+00
(PID.TID 0000.0001) %MON dynstat_theta_min            =  -1.0000000000000E+00
(PID.TID 0000.0001) %MON dynstat_theta_mean           =   5.6888878795354E-01
(PID.TID 0000.0001) %MON dynstat_theta_sd             =   8.6846849791573E-01
(PID.TID 0000.0001) %MON dynstat_theta_del2           =   1.6976376544942E-06
(PID.TID 0000.0001) %MON dynstat_salt_max             =   3.4700000000000E+01
(PID.TID 0000.0001) %MON dynstat_salt_min             =   3.4000000000000E+01
(PID.TID 0000.0001) %MON dynstat_salt_mean            =   3.4499169688732E+01
(PID.TID 0000.0001) %MON dynstat_salt_sd              =   2.7632342593804E-01
(PID.TID 0000.0001) %MON dynstat_salt_del2            =   6.6376623420379E-07
(PID.TID 0000.0001) %MON advcfl_uvel_max              =   1.2902646333774E-03
(PID.TID 0000.0001) %MON advcfl_vvel_max              =   1.0476805720846E-03
(PID.TID 0000.0001) %MON advcfl_wvel_max              =   2.4212306797059E-03
(PID.TID 0000.0001) %MON advcfl_W_hf_max              =   2.4212306797059E-03
(PID.TID 0000.0001) %MON pe_b_mean                    =  -8.3047803334716E-01
(PID.TID 0000.0001) %MON ke_max                       =   4.9434020701648E-05
(PID.TID 0000.0001) %MON ke_mean                      =   1.0650476174399E-07
(PID.TID 0000.0001) %MON ke_vol                       =   4.2724947706395E+12
(PID.TID 0000.0001) // =======================================================
(PID.TID 0000.0001) // End MONITOR dynamic field statistics
(PID.TID 0000.0001) // =======================================================
(PID.TID 0000.0001) // =======================================================
(PID.TID 0000.0001) // Begin OBCS MONITOR field statistics
(PID.TID 0000.0001) // =======================================================
(PID.TID 0000.0001) %MON obc_N_vVel_max               =   1.4678133114385E-05
(PID.TID 0000.0001) %MON obc_N_vVel_min               =   1.4678133114384E-05
(PID.TID 0000.0001) %MON obc_N_vVel_mean              =   1.4678133114384E-05
(PID.TID 0000.0001) %MON obc_N_vVel_sd                =   4.1021891212651E-12
(PID.TID 0000.0001) %MON obc_N_vVel_Int               =   9.6875678554937E+02
(PID.TID 0000.0001) // =======================================================
(PID.TID 0000.0001) // End OBCS MONITOR field statistics
(PID.TID 0000.0001) // =======================================================
 cg2d: Sum(rhs),rhsMax =   4.51196006517198E+00  2.99917440543821E+02
(PID.TID 0000.0001)      cg2d_init_res =   6.01321821436489E-06
(PID.TID 0000.0001)      cg2d_iters(min,last) =      -1      78
(PID.TID 0000.0001)      cg2d_last_res =   9.50720818582495E-12
(PID.TID 0000.0001) // =======================================================
(PID.TID 0000.0001) // Begin MONITOR dynamic field statistics
(PID.TID 0000.0001) // =======================================================
(PID.TID 0000.0001) %MON time_tsnumber                =                   830
(PID.TID 0000.0001) %MON time_secondsf                =   8.3000000000000E+04
(PID.TID 0000.0001) %MON dynstat_eta_max              =   5.7966296483892E+00
(PID.TID 0000.0001) %MON dynstat_eta_min              =  -1.4195397759143E+01
(PID.TID 0000.0001) %MON dynstat_eta_mean             =  -2.5059546566339E+00
(PID.TID 0000.0001) %MON dynstat_eta_sd               =   4.9505867563511E+00
(PID.TID 0000.0001) %MON dynstat_eta_del2             =   2.0714544050535E-01
(PID.TID 0000.0001) %MON dynstat_uvel_max             =   2.8938623729928E-03
(PID.TID 0000.0001) %MON dynstat_uvel_min             =  -1.2938829412739E-02
(PID.TID 0000.0001) %MON dynstat_uvel_mean            =  -1.1754550522090E-07
(PID.TID 0000.0001) %MON dynstat_uvel_sd              =   3.8571651742035E-04
(PID.TID 0000.0001) %MON dynstat_uvel_del2            =   6.1859771978065E-07
(PID.TID 0000.0001) %MON dynstat_vvel_max             =   1.0504870785876E-02
(PID.TID 0000.0001) %MON dynstat_vvel_min             =  -4.9405114276970E-03
(PID.TID 0000.0001) %MON dynstat_vvel_mean            =   1.4912100240134E-05
(PID.TID 0000.0001) %MON dynstat_vvel_sd              =   2.6080519389588E-04
(PID.TID 0000.0001) %MON dynstat_vvel_del2            =   5.4435519858500E-07
(PID.TID 0000.0001) %MON dynstat_wvel_max             =   4.8365724910944E-04
(PID.TID 0000.0001) %MON dynstat_wvel_min             =  -4.8563358005736E-04
(PID.TID 0000.0001) %MON dynstat_wvel_mean            =   6.5986666066572E-09
(PID.TID 0000.0001) %MON dynstat_wvel_sd              =   1.6180304714240E-05
(PID.TID 0000.0001) %MON dynstat_wvel_del2            =   6.3498108455240E-08
(PID.TID 0000.0001) %MON dynstat_theta_max            =   1.2000000000000E+00
(PID.TID 0000.0001) %MON dynstat_theta_min            =  -1.0000000000000E+00
(PID.TID 0000.0001) %MON dynstat_theta_mean           =   5.6888826202922E-01
(PID.TID 0000.0001) %MON dynstat_theta_sd             =   8.6846820769013E-01
(PID.TID 0000.0001) %MON dynstat_theta_del2           =   1.7006438988783E-06
(PID.TID 0000.0001) %MON dynstat_salt_max             =   3.4700000000000E+01
(PID.TID 0000.0001) %MON dynstat_salt_min             =   3.4000000000000E+01
(PID.TID 0000.0001) %MON dynstat_salt_mean            =   3.4499169478391E+01
(PID.TID 0000.0001) %MON dynstat_salt_sd              =   2.7632331532886E-01
(PID.TID 0000.0001) %MON dynstat_salt_del2            =   6.6501584740464E-07
(PID.TID 0000.0001) %MON advcfl_uvel_max              =   1.2938829412739E-03
(PID.TID 0000.0001) %MON advcfl_vvel_max              =   1.0504870785876E-03
(PID.TID 0000.0001) %MON advcfl_wvel_max              =   2.4281679002868E-03
(PID.TID 0000.0001) %MON advcfl_W_hf_max              =   2.4281679002868E-03
(PID.TID 0000.0001) %MON pe_b_mean                    =  -8.3048132231344E-01
(PID.TID 0000.0001) %MON ke_max                       =   4.9735153253161E-05
(PID.TID 0000.0001) %MON ke_mean                      =   1.0703189630105E-07
(PID.TID 0000.0001) %MON ke_vol                       =   4.2724946999574E+12
(PID.TID 0000.0001) // =======================================================
(PID.TID 0000.0001) // End MONITOR dynamic field statistics
(PID.TID 0000.0001) // =======================================================
(PID.TID 0000.0001) // =======================================================
(PID.TID 0000.0001) // Begin OBCS MONITOR field statistics
(PID.TID 0000.0001) // =======================================================
(PID.TID 0000.0001) %MON obc_N_vVel_max               =   1.4676646272277E-05
(PID.TID 0000.0001) %MON obc_N_vVel_min               =   1.4676646272277E-05
(PID.TID 0000.0001) %MON obc_N_vVel_mean              =   1.4676646272277E-05
(PID.TID 0000.0001) %MON obc_N_vVel_sd                =   1.8680653653467E-12
(PID.TID 0000.0001) %MON obc_N_vVel_Int               =   9.6865865397031E+02
(PID.TID 0000.0001) // =======================================================
(PID.TID 0000.0001) // End OBCS MONITOR field statistics
(PID.TID 0000.0001) // =======================================================
 cg2d: Sum(rhs),rhsMax =   4.51198034033417E+00  2.99917514368226E+02
(PID.TID 0000.0001)      cg2d_init_res =   6.02060142628167E-06
(PID.TID 0000.0001)      cg2d_iters(min,last) =      -1      78
(PID.TID 0000.0001)      cg2d_last_res =   9.51990130868074E-12
(PID.TID 0000.0001) // =======================================================
(PID.TID 0000.0001) // Begin MONITOR dynamic field statistics
(PID.TID 0000.0001) // =======================================================
(PID.TID 0000.0001) %MON time_tsnumber                =                   831
(PID.TID 0000.0001) %MON time_secondsf                =   8.3100000000000E+04
(PID.TID 0000.0001) %MON dynstat_eta_max              =   5.7966219859574E+00
(PID.TID 0000.0001) %MON dynstat_eta_min              =  -1.4195421148706E+01
(PID.TID 0000.0001) %MON dynstat_eta_mean             =  -2.5059665343543E+00
(PID.TID 0000.0001) %MON dynstat_eta_sd               =   4.9505908195907E+00
(PID.TID 0000.0001) %MON dynstat_eta_del2             =   2.0714545861501E-01
(PID.TID 0000.0001) %MON dynstat_uvel_max             =   2.9019544658517E-03
(PID.TID 0000.0001) %MON dynstat_uvel_min             =  -1.2975088201213E-02
(PID.TID 0000.0001) %MON dynstat_uvel_mean            =  -1.1755227199940E-07
(PID.TID 0000.0001) %MON dynstat_uvel_sd              =   3.8671460075249E-04
(PID.TID 0000.0001) %MON dynstat_uvel_del2            =   6.1985199872400E-07
(PID.TID 0000.0001) %MON dynstat_vvel_max             =   1.0532989209076E-02
(PID.TID 0000.0001) %MON dynstat_vvel_min             =  -4.9505352214716E-03
(PID.TID 0000.0001) %MON dynstat_vvel_mean            =   1.4910613130040E-05
(PID.TID 0000.0001) %MON dynstat_vvel_sd              =   2.6138495352792E-04
(PID.TID 0000.0001) %MON dynstat_vvel_del2            =   5.4551239502630E-07
(PID.TID 0000.0001) %MON dynstat_wvel_max             =   4.8516907744284E-04
(PID.TID 0000.0001) %MON dynstat_wvel_min             =  -4.8702461709313E-04
(PID.TID 0000.0001) %MON dynstat_wvel_mean            =   6.5980772762262E-09
(PID.TID 0000.0001) %MON dynstat_wvel_sd              =   1.6243929029882E-05
(PID.TID 0000.0001) %MON dynstat_wvel_del2            =   6.4157017875171E-08
(PID.TID 0000.0001) %MON dynstat_theta_max            =   1.2000000000000E+00
(PID.TID 0000.0001) %MON dynstat_theta_min            =  -1.0000000000000E+00
(PID.TID 0000.0001) %MON dynstat_theta_mean           =   5.6888773493856E-01
(PID.TID 0000.0001) %MON dynstat_theta_sd             =   8.6846791688900E-01
(PID.TID 0000.0001) %MON dynstat_theta_del2           =   1.7037533322524E-06
(PID.TID 0000.0001) %MON dynstat_salt_max             =   3.4700000000000E+01
(PID.TID 0000.0001) %MON dynstat_salt_min             =   3.4000000000000E+01
(PID.TID 0000.0001) %MON dynstat_salt_mean            =   3.4499169267589E+01
(PID.TID 0000.0001) %MON dynstat_salt_sd              =   2.7632320449295E-01
(PID.TID 0000.0001) %MON dynstat_salt_del2            =   6.6629341207720E-07
(PID.TID 0000.0001) %MON advcfl_uvel_max              =   1.2975088201213E-03
(PID.TID 0000.0001) %MON advcfl_vvel_max              =   1.0532989209076E-03
(PID.TID 0000.0001) %MON advcfl_wvel_max              =   2.4351230854656E-03
(PID.TID 0000.0001) %MON advcfl_W_hf_max              =   2.4351230854656E-03
(PID.TID 0000.0001) %MON pe_b_mean                    =  -8.3048460774091E-01
(PID.TID 0000.0001) %MON ke_max                       =   5.0037960037692E-05
(PID.TID 0000.0001) %MON ke_mean                      =   1.0756107182628E-07
(PID.TID 0000.0001) %MON ke_vol                       =   4.2724946293396E+12
(PID.TID 0000.0001) // =======================================================
(PID.TID 0000.0001) // End MONITOR dynamic field statistics
(PID.TID 0000.0001) // =======================================================
(PID.TID 0000.0001) // =======================================================
(PID.TID 0000.0001) // Begin OBCS MONITOR field statistics
(PID.TID 0000.0001) // =======================================================
(PID.TID 0000.0001) %MON obc_N_vVel_max               =   1.4675220686191E-05
(PID.TID 0000.0001) %MON obc_N_vVel_min               =   1.4675220686191E-05
(PID.TID 0000.0001) %MON obc_N_vVel_mean              =   1.4675220686191E-05
(PID.TID 0000.0001) %MON obc_N_vVel_sd                =  -1.0055414321348E-23
(PID.TID 0000.0001) %MON obc_N_vVel_Int               =   9.6856456528862E+02
(PID.TID 0000.0001) // =======================================================
(PID.TID 0000.0001) // End OBCS MONITOR field statistics
(PID.TID 0000.0001) // =======================================================
 cg2d: Sum(rhs),rhsMax =   4.51200059627338E+00  2.99917588183569E+02
(PID.TID 0000.0001)      cg2d_init_res =   6.02620518066982E-06
(PID.TID 0000.0001)      cg2d_iters(min,last) =      -1      78
(PID.TID 0000.0001)      cg2d_last_res =   9.53495752132845E-12
(PID.TID 0000.0001) // =======================================================
(PID.TID 0000.0001) // Begin MONITOR dynamic field statistics
(PID.TID 0000.0001) // =======================================================
(PID.TID 0000.0001) %MON time_tsnumber                =                   832
(PID.TID 0000.0001) %MON time_secondsf                =   8.3200000000000E+04
(PID.TID 0000.0001) %MON dynstat_eta_max              =   5.7966143530720E+00
(PID.TID 0000.0001) %MON dynstat_eta_min              =  -1.4195444519256E+01
(PID.TID 0000.0001) %MON dynstat_eta_mean             =  -2.5059784013280E+00
(PID.TID 0000.0001) %MON dynstat_eta_sd               =   4.9505948799968E+00
(PID.TID 0000.0001) %MON dynstat_eta_del2             =   2.0714547677175E-01
(PID.TID 0000.0001) %MON dynstat_uvel_max             =   2.9100651083418E-03
(PID.TID 0000.0001) %MON dynstat_uvel_min             =  -1.3011422682641E-02
(PID.TID 0000.0001) %MON dynstat_uvel_mean            =  -1.1755914341996E-07
(PID.TID 0000.0001) %MON dynstat_uvel_sd              =   3.8771589658260E-04
(PID.TID 0000.0001) %MON dynstat_uvel_del2            =   6.2110976691167E-07
(PID.TID 0000.0001) %MON dynstat_vvel_max             =   1.0561161017833E-02
(PID.TID 0000.0001) %MON dynstat_vvel_min             =  -4.9605695175758E-03
(PID.TID 0000.0001) %MON dynstat_vvel_mean            =   1.4909201221232E-05
(PID.TID 0000.0001) %MON dynstat_vvel_sd              =   2.6196181881840E-04
(PID.TID 0000.0001) %MON dynstat_vvel_del2            =   5.4658719775804E-07
(PID.TID 0000.0001) %MON dynstat_wvel_max             =   4.8668450482972E-04
(PID.TID 0000.0001) %MON dynstat_wvel_min             =  -4.8841925301888E-04
(PID.TID 0000.0001) %MON dynstat_wvel_mean            =   6.5976082096374E-09
(PID.TID 0000.0001) %MON dynstat_wvel_sd              =   1.6282104270106E-05
(PID.TID 0000.0001) %MON dynstat_wvel_del2            =   6.4561803622423E-08
(PID.TID 0000.0001) %MON dynstat_theta_max            =   1.2000000000000E+00
(PID.TID 0000.0001) %MON dynstat_theta_min            =  -1.0000000000000E+00
(PID.TID 0000.0001) %MON dynstat_theta_mean           =   5.6888720666956E-01
(PID.TID 0000.0001) %MON dynstat_theta_sd             =   8.6846762552094E-01
(PID.TID 0000.0001) %MON dynstat_theta_del2           =   1.7069782457179E-06
(PID.TID 0000.0001) %MON dynstat_salt_max             =   3.4700000000000E+01
(PID.TID 0000.0001) %MON dynstat_salt_min             =   3.4000000000000E+01
(PID.TID 0000.0001) %MON dynstat_salt_mean            =   3.4499169056320E+01
(PID.TID 0000.0001) %MON dynstat_salt_sd              =   2.7632309343276E-01
(PID.TID 0000.0001) %MON dynstat_salt_del2            =   6.6760213144394E-07
(PID.TID 0000.0001) %MON advcfl_uvel_max              =   1.3011422682641E-03
(PID.TID 0000.0001) %MON advcfl_vvel_max              =   1.0561161017833E-03
(PID.TID 0000.0001) %MON advcfl_wvel_max              =   2.4420962650944E-03
(PID.TID 0000.0001) %MON advcfl_W_hf_max              =   2.4420962650944E-03
(PID.TID 0000.0001) %MON pe_b_mean                    =  -8.3048788964057E-01
(PID.TID 0000.0001) %MON ke_max                       =   5.0342448579520E-05
(PID.TID 0000.0001) %MON ke_mean                      =   1.0809202370440E-07
(PID.TID 0000.0001) %MON ke_vol                       =   4.2724945587859E+12
(PID.TID 0000.0001) // =======================================================
(PID.TID 0000.0001) // End MONITOR dynamic field statistics
(PID.TID 0000.0001) // =======================================================
(PID.TID 0000.0001) // =======================================================
(PID.TID 0000.0001) // Begin OBCS MONITOR field statistics
(PID.TID 0000.0001) // =======================================================
(PID.TID 0000.0001) %MON obc_N_vVel_max               =   1.4673864087277E-05
(PID.TID 0000.0001) %MON obc_N_vVel_min               =   1.4673864087277E-05
(PID.TID 0000.0001) %MON obc_N_vVel_mean              =   1.4673864087277E-05
(PID.TID 0000.0001) %MON obc_N_vVel_sd                =  -1.3131492224279E-23
(PID.TID 0000.0001) %MON obc_N_vVel_Int               =   9.6847502976027E+02
(PID.TID 0000.0001) // =======================================================
(PID.TID 0000.0001) // End OBCS MONITOR field statistics
(PID.TID 0000.0001) // =======================================================
 cg2d: Sum(rhs),rhsMax =   4.51202083301157E+00  2.99917661994911E+02
(PID.TID 0000.0001)      cg2d_init_res =   6.02960419969486E-06
(PID.TID 0000.0001)      cg2d_iters(min,last) =      -1      78
(PID.TID 0000.0001)      cg2d_last_res =   9.55245283212397E-12
(PID.TID 0000.0001) // =======================================================
(PID.TID 0000.0001) // Begin MONITOR dynamic field statistics
(PID.TID 0000.0001) // =======================================================
(PID.TID 0000.0001) %MON time_tsnumber                =                   833
(PID.TID 0000.0001) %MON time_secondsf                =   8.3300000000000E+04
(PID.TID 0000.0001) %MON dynstat_eta_max              =   5.7966067496845E+00
(PID.TID 0000.0001) %MON dynstat_eta_min              =  -1.4195467870946E+01
(PID.TID 0000.0001) %MON dynstat_eta_mean             =  -2.5059902576096E+00
(PID.TID 0000.0001) %MON dynstat_eta_sd               =   4.9505989376000E+00
(PID.TID 0000.0001) %MON dynstat_eta_del2             =   2.0714549497585E-01
(PID.TID 0000.0001) %MON dynstat_uvel_max             =   2.9181943303058E-03
(PID.TID 0000.0001) %MON dynstat_uvel_min             =  -1.3047832839828E-02
(PID.TID 0000.0001) %MON dynstat_uvel_mean            =  -1.1756618749797E-07
(PID.TID 0000.0001) %MON dynstat_uvel_sd              =   3.8872041243222E-04
(PID.TID 0000.0001) %MON dynstat_uvel_del2            =   6.2237109096519E-07
(PID.TID 0000.0001) %MON dynstat_vvel_max             =   1.0589386239406E-02
(PID.TID 0000.0001) %MON dynstat_vvel_min             =  -4.9706143433932E-03
(PID.TID 0000.0001) %MON dynstat_vvel_mean            =   1.4907874966123E-05
(PID.TID 0000.0001) %MON dynstat_vvel_sd              =   2.6253520423954E-04
(PID.TID 0000.0001) %MON dynstat_vvel_del2            =   5.4756996019914E-07
(PID.TID 0000.0001) %MON dynstat_wvel_max             =   4.8820353733356E-04
(PID.TID 0000.0001) %MON dynstat_wvel_min             =  -4.8981749384190E-04
(PID.TID 0000.0001) %MON dynstat_wvel_mean            =   6.5972796818964E-09
(PID.TID 0000.0001) %MON dynstat_wvel_sd              =   1.6291739002534E-05
(PID.TID 0000.0001) %MON dynstat_wvel_del2            =   6.4682826102354E-08
(PID.TID 0000.0001) %MON dynstat_theta_max            =   1.2000000000000E+00
(PID.TID 0000.0001) %MON dynstat_theta_min            =  -1.0000000000000E+00
(PID.TID 0000.0001) %MON dynstat_theta_mean           =   5.6888667721162E-01
(PID.TID 0000.0001) %MON dynstat_theta_sd             =   8.6846733360076E-01
(PID.TID 0000.0001) %MON dynstat_theta_del2           =   1.7103218848635E-06
(PID.TID 0000.0001) %MON dynstat_salt_max             =   3.4700000000000E+01
(PID.TID 0000.0001) %MON dynstat_salt_min             =   3.4000000000000E+01
(PID.TID 0000.0001) %MON dynstat_salt_mean            =   3.4499168844582E+01
(PID.TID 0000.0001) %MON dynstat_salt_sd              =   2.7632298215294E-01
(PID.TID 0000.0001) %MON dynstat_salt_del2            =   6.6894283586575E-07
(PID.TID 0000.0001) %MON advcfl_uvel_max              =   1.3047832839828E-03
(PID.TID 0000.0001) %MON advcfl_vvel_max              =   1.0589386239406E-03
(PID.TID 0000.0001) %MON advcfl_wvel_max              =   2.4490874692095E-03
(PID.TID 0000.0001) %MON advcfl_W_hf_max              =   2.4490874692095E-03
(PID.TID 0000.0001) %MON pe_b_mean                    =  -8.3049116802532E-01
(PID.TID 0000.0001) %MON ke_max                       =   5.0648626423087E-05
(PID.TID 0000.0001) %MON ke_mean                      =   1.0862460569759E-07
(PID.TID 0000.0001) %MON ke_vol                       =   4.2724944882961E+12
(PID.TID 0000.0001) // =======================================================
(PID.TID 0000.0001) // End MONITOR dynamic field statistics
(PID.TID 0000.0001) // =======================================================
(PID.TID 0000.0001) // =======================================================
(PID.TID 0000.0001) // Begin OBCS MONITOR field statistics
(PID.TID 0000.0001) // =======================================================
(PID.TID 0000.0001) %MON obc_N_vVel_max               =   1.4672585598802E-05
(PID.TID 0000.0001) %MON obc_N_vVel_min               =   1.4672585598802E-05
(PID.TID 0000.0001) %MON obc_N_vVel_mean              =   1.4672585598802E-05
(PID.TID 0000.0001) %MON obc_N_vVel_sd                =  -4.8338367046068E-24
(PID.TID 0000.0001) %MON obc_N_vVel_Int               =   9.6839064952095E+02
(PID.TID 0000.0001) // =======================================================
(PID.TID 0000.0001) // End OBCS MONITOR field statistics
(PID.TID 0000.0001) // =======================================================
 cg2d: Sum(rhs),rhsMax =   4.51204105058470E+00  2.99917735807795E+02
(PID.TID 0000.0001)      cg2d_init_res =   6.03058540082345E-06
(PID.TID 0000.0001)      cg2d_iters(min,last) =      -1      78
(PID.TID 0000.0001)      cg2d_last_res =   9.57211617165688E-12
(PID.TID 0000.0001) // =======================================================
(PID.TID 0000.0001) // Begin MONITOR dynamic field statistics
(PID.TID 0000.0001) // =======================================================
(PID.TID 0000.0001) %MON time_tsnumber                =                   834
(PID.TID 0000.0001) %MON time_secondsf                =   8.3400000000000E+04
(PID.TID 0000.0001) %MON dynstat_eta_max              =   5.7965991757412E+00
(PID.TID 0000.0001) %MON dynstat_eta_min              =  -1.4195491203958E+01
(PID.TID 0000.0001) %MON dynstat_eta_mean             =  -2.5060021032652E+00
(PID.TID 0000.0001) %MON dynstat_eta_sd               =   4.9506029924385E+00
(PID.TID 0000.0001) %MON dynstat_eta_del2             =   2.0714551322769E-01
(PID.TID 0000.0001) %MON dynstat_uvel_max             =   2.9263421612740E-03
(PID.TID 0000.0001) %MON dynstat_uvel_min             =  -1.3084318654816E-02
(PID.TID 0000.0001) %MON dynstat_uvel_mean            =  -1.1757348117082E-07
(PID.TID 0000.0001) %MON dynstat_uvel_sd              =   3.8972815589980E-04
(PID.TID 0000.0001) %MON dynstat_uvel_del2            =   6.2363603224775E-07
(PID.TID 0000.0001) %MON dynstat_vvel_max             =   1.0617664900873E-02
(PID.TID 0000.0001) %MON dynstat_vvel_min             =  -4.9806697260557E-03
(PID.TID 0000.0001) %MON dynstat_vvel_mean            =   1.4906646647397E-05
(PID.TID 0000.0001) %MON dynstat_vvel_sd              =   2.6310502925190E-04
(PID.TID 0000.0001) %MON dynstat_vvel_del2            =   5.4846011581339E-07
(PID.TID 0000.0001) %MON dynstat_wvel_max             =   4.8972618099653E-04
(PID.TID 0000.0001) %MON dynstat_wvel_min             =  -4.9121934553051E-04
(PID.TID 0000.0001) %MON dynstat_wvel_mean            =   6.5971150030132E-09
(PID.TID 0000.0001) %MON dynstat_wvel_sd              =   1.6272295518781E-05
(PID.TID 0000.0001) %MON dynstat_wvel_del2            =   6.4514302925430E-08
(PID.TID 0000.0001) %MON dynstat_theta_max            =   1.2000000000000E+00
(PID.TID 0000.0001) %MON dynstat_theta_min            =  -1.0000000000000E+00
(PID.TID 0000.0001) %MON dynstat_theta_mean           =   5.6888614655598E-01
(PID.TID 0000.0001) %MON dynstat_theta_sd             =   8.6846704114356E-01
(PID.TID 0000.0001) %MON dynstat_theta_del2           =   1.7137780096940E-06
(PID.TID 0000.0001) %MON dynstat_salt_max             =   3.4700000000000E+01
(PID.TID 0000.0001) %MON dynstat_salt_min             =   3.4000000000000E+01
(PID.TID 0000.0001) %MON dynstat_salt_mean            =   3.4499168632371E+01
(PID.TID 0000.0001) %MON dynstat_salt_sd              =   2.7632287065840E-01
(PID.TID 0000.0001) %MON dynstat_salt_del2            =   6.7031389457771E-07
(PID.TID 0000.0001) %MON advcfl_uvel_max              =   1.3084318654816E-03
(PID.TID 0000.0001) %MON advcfl_vvel_max              =   1.0617664900873E-03
(PID.TID 0000.0001) %MON advcfl_wvel_max              =   2.4560967276525E-03
(PID.TID 0000.0001) %MON advcfl_W_hf_max              =   2.4560967276525E-03
(PID.TID 0000.0001) %MON pe_b_mean                    =  -8.3049444291155E-01
(PID.TID 0000.0001) %MON ke_max                       =   5.0956501132281E-05
(PID.TID 0000.0001) %MON ke_mean                      =   1.0915880322772E-07
(PID.TID 0000.0001) %MON ke_vol                       =   4.2724944178698E+12
(PID.TID 0000.0001) // =======================================================
(PID.TID 0000.0001) // End MONITOR dynamic field statistics
(PID.TID 0000.0001) // =======================================================
(PID.TID 0000.0001) // =======================================================
(PID.TID 0000.0001) // Begin OBCS MONITOR field statistics
(PID.TID 0000.0001) // =======================================================
(PID.TID 0000.0001) %MON obc_N_vVel_max               =   1.4671395861075E-05
(PID.TID 0000.0001) %MON obc_N_vVel_min               =   1.4671395861075E-05
(PID.TID 0000.0001) %MON obc_N_vVel_mean              =   1.4671395861075E-05
(PID.TID 0000.0001) %MON obc_N_vVel_sd                =   1.7090879257890E-12
(PID.TID 0000.0001) %MON obc_N_vVel_Int               =   9.6831212683093E+02
(PID.TID 0000.0001) // =======================================================
(PID.TID 0000.0001) // End OBCS MONITOR field statistics
(PID.TID 0000.0001) // =======================================================
 cg2d: Sum(rhs),rhsMax =   4.51206124905382E+00  2.99917809628222E+02
(PID.TID 0000.0001)      cg2d_init_res =   6.02921714201434E-06
(PID.TID 0000.0001)      cg2d_iters(min,last) =      -1      78
(PID.TID 0000.0001)      cg2d_last_res =   9.59358879151130E-12
(PID.TID 0000.0001) // =======================================================
(PID.TID 0000.0001) // Begin MONITOR dynamic field statistics
(PID.TID 0000.0001) // =======================================================
(PID.TID 0000.0001) %MON time_tsnumber                =                   835
(PID.TID 0000.0001) %MON time_secondsf                =   8.3500000000000E+04
(PID.TID 0000.0001) %MON dynstat_eta_max              =   5.7965916311636E+00
(PID.TID 0000.0001) %MON dynstat_eta_min              =  -1.4195514518488E+01
(PID.TID 0000.0001) %MON dynstat_eta_mean             =  -2.5060139383789E+00
(PID.TID 0000.0001) %MON dynstat_eta_sd               =   4.9506070445535E+00
(PID.TID 0000.0001) %MON dynstat_eta_del2             =   2.0714553152740E-01
(PID.TID 0000.0001) %MON dynstat_uvel_max             =   2.9345086306947E-03
(PID.TID 0000.0001) %MON dynstat_uvel_min             =  -1.3120880108968E-02
(PID.TID 0000.0001) %MON dynstat_uvel_mean            =  -1.1758110865594E-07
(PID.TID 0000.0001) %MON dynstat_uvel_sd              =   3.9073913447412E-04
(PID.TID 0000.0001) %MON dynstat_uvel_del2            =   6.2490464607431E-07
(PID.TID 0000.0001) %MON dynstat_vvel_max             =   1.0645997029204E-02
(PID.TID 0000.0001) %MON dynstat_vvel_min             =  -4.9907356924086E-03
(PID.TID 0000.0001) %MON dynstat_vvel_mean            =   1.4905530431761E-05
(PID.TID 0000.0001) %MON dynstat_vvel_sd              =   2.6367171603659E-04
(PID.TID 0000.0001) %MON dynstat_vvel_del2            =   5.4926603620918E-07
(PID.TID 0000.0001) %MON dynstat_wvel_max             =   4.9125244182493E-04
(PID.TID 0000.0001) %MON dynstat_wvel_min             =  -4.9262481400874E-04
(PID.TID 0000.0001) %MON dynstat_wvel_mean            =   6.5971405412304E-09
(PID.TID 0000.0001) %MON dynstat_wvel_sd              =   1.6225770894692E-05
(PID.TID 0000.0001) %MON dynstat_wvel_del2            =   6.4074082254279E-08
(PID.TID 0000.0001) %MON dynstat_theta_max            =   1.2000000000000E+00
(PID.TID 0000.0001) %MON dynstat_theta_min            =  -1.0000000000000E+00
(PID.TID 0000.0001) %MON dynstat_theta_mean           =   5.6888561469648E-01
(PID.TID 0000.0001) %MON dynstat_theta_sd             =   8.6846674816388E-01
(PID.TID 0000.0001) %MON dynstat_theta_del2           =   1.7173313329416E-06
(PID.TID 0000.0001) %MON dynstat_salt_max             =   3.4700000000000E+01
(PID.TID 0000.0001) %MON dynstat_salt_min             =   3.4000000000000E+01
(PID.TID 0000.0001) %MON dynstat_salt_mean            =   3.4499168419685E+01
(PID.TID 0000.0001) %MON dynstat_salt_sd              =   2.7632275895348E-01
(PID.TID 0000.0001) %MON dynstat_salt_del2            =   6.7171136914057E-07
(PID.TID 0000.0001) %MON advcfl_uvel_max              =   1.3120880108968E-03
(PID.TID 0000.0001) %MON advcfl_vvel_max              =   1.0645997029204E-03
(PID.TID 0000.0001) %MON advcfl_wvel_max              =   2.4631240700437E-03
(PID.TID 0000.0001) %MON advcfl_W_hf_max              =   2.4631240700437E-03
(PID.TID 0000.0001) %MON pe_b_mean                    =  -8.3049771432026E-01
(PID.TID 0000.0001) %MON ke_max                       =   5.1266080290978E-05
(PID.TID 0000.0001) %MON ke_mean                      =   1.0969473415823E-07
(PID.TID 0000.0001) %MON ke_vol                       =   4.2724943475066E+12
(PID.TID 0000.0001) // =======================================================
(PID.TID 0000.0001) // End MONITOR dynamic field statistics
(PID.TID 0000.0001) // =======================================================
(PID.TID 0000.0001) // =======================================================
(PID.TID 0000.0001) // Begin OBCS MONITOR field statistics
(PID.TID 0000.0001) // =======================================================
(PID.TID 0000.0001) %MON obc_N_vVel_max               =   1.4670307078937E-05
(PID.TID 0000.0001) %MON obc_N_vVel_min               =   1.4670307078936E-05
(PID.TID 0000.0001) %MON obc_N_vVel_mean              =   1.4670307078936E-05
(PID.TID 0000.0001) %MON obc_N_vVel_sd                =   1.6396148910026E-12
(PID.TID 0000.0001) %MON obc_N_vVel_Int               =   9.6824026720980E+02
(PID.TID 0000.0001) // =======================================================
(PID.TID 0000.0001) // End OBCS MONITOR field statistics
(PID.TID 0000.0001) // =======================================================
 cg2d: Sum(rhs),rhsMax =   4.51208142849975E+00  2.99917883462671E+02
(PID.TID 0000.0001)      cg2d_init_res =   6.02577913495191E-06
(PID.TID 0000.0001)      cg2d_iters(min,last) =      -1      78
(PID.TID 0000.0001)      cg2d_last_res =   9.61650974289954E-12
(PID.TID 0000.0001) // =======================================================
(PID.TID 0000.0001) // Begin MONITOR dynamic field statistics
(PID.TID 0000.0001) // =======================================================
(PID.TID 0000.0001) %MON time_tsnumber                =                   836
(PID.TID 0000.0001) %MON time_secondsf                =   8.3600000000000E+04
(PID.TID 0000.0001) %MON dynstat_eta_max              =   5.7965841158417E+00
(PID.TID 0000.0001) %MON dynstat_eta_min              =  -1.4195537814768E+01
(PID.TID 0000.0001) %MON dynstat_eta_mean             =  -2.5060257630498E+00
(PID.TID 0000.0001) %MON dynstat_eta_sd               =   4.9506110939903E+00
(PID.TID 0000.0001) %MON dynstat_eta_del2             =   2.0714554987504E-01
(PID.TID 0000.0001) %MON dynstat_uvel_max             =   2.9426937678743E-03
(PID.TID 0000.0001) %MON dynstat_uvel_min             =  -1.3157517183071E-02
(PID.TID 0000.0001) %MON dynstat_uvel_mean            =  -1.1758916004876E-07
(PID.TID 0000.0001) %MON dynstat_uvel_sd              =   3.9175335540507E-04
(PID.TID 0000.0001) %MON dynstat_uvel_del2            =   6.2617698185243E-07
(PID.TID 0000.0001) %MON dynstat_vvel_max             =   1.0674382651252E-02
(PID.TID 0000.0001) %MON dynstat_vvel_min             =  -5.0008122688521E-03
(PID.TID 0000.0001) %MON dynstat_vvel_mean            =   1.4904542369821E-05
(PID.TID 0000.0001) %MON dynstat_vvel_sd              =   2.6423614067681E-04
(PID.TID 0000.0001) %MON dynstat_vvel_del2            =   5.5000406642916E-07
(PID.TID 0000.0001) %MON dynstat_wvel_max             =   4.9278232581369E-04
(PID.TID 0000.0001) %MON dynstat_wvel_min             =  -4.9403390521704E-04
(PID.TID 0000.0001) %MON dynstat_wvel_mean            =   6.5973850169927E-09
(PID.TID 0000.0001) %MON dynstat_wvel_sd              =   1.6156489671946E-05
(PID.TID 0000.0001) %MON dynstat_wvel_del2            =   6.3402327360416E-08
(PID.TID 0000.0001) %MON dynstat_theta_max            =   1.2000000000000E+00
(PID.TID 0000.0001) %MON dynstat_theta_min            =  -1.0000000000000E+00
(PID.TID 0000.0001) %MON dynstat_theta_mean           =   5.6888508162922E-01
(PID.TID 0000.0001) %MON dynstat_theta_sd             =   8.6846645467429E-01
(PID.TID 0000.0001) %MON dynstat_theta_del2           =   1.7209591790758E-06
(PID.TID 0000.0001) %MON dynstat_salt_max             =   3.4700000000000E+01
(PID.TID 0000.0001) %MON dynstat_salt_min             =   3.4000000000000E+01
(PID.TID 0000.0001) %MON dynstat_salt_mean            =   3.4499168206522E+01
(PID.TID 0000.0001) %MON dynstat_salt_sd              =   2.7632264704205E-01
(PID.TID 0000.0001) %MON dynstat_salt_del2            =   6.7312935436810E-07
(PID.TID 0000.0001) %MON advcfl_uvel_max              =   1.3157517183071E-03
(PID.TID 0000.0001) %MON advcfl_vvel_max              =   1.0674382651252E-03
(PID.TID 0000.0001) %MON advcfl_wvel_max              =   2.4701695260852E-03
(PID.TID 0000.0001) %MON advcfl_W_hf_max              =   2.4701695260852E-03
(PID.TID 0000.0001) %MON pe_b_mean                    =  -8.3050098227647E-01
(PID.TID 0000.0001) %MON ke_max                       =   5.1577371503896E-05
(PID.TID 0000.0001) %MON ke_mean                      =   1.1023263726492E-07
(PID.TID 0000.0001) %MON ke_vol                       =   4.2724942772060E+12
(PID.TID 0000.0001) // =======================================================
(PID.TID 0000.0001) // End MONITOR dynamic field statistics
(PID.TID 0000.0001) // =======================================================
(PID.TID 0000.0001) // =======================================================
(PID.TID 0000.0001) // Begin OBCS MONITOR field statistics
(PID.TID 0000.0001) // =======================================================
(PID.TID 0000.0001) %MON obc_N_vVel_max               =   1.4669333069302E-05
(PID.TID 0000.0001) %MON obc_N_vVel_min               =   1.4669333069301E-05
(PID.TID 0000.0001) %MON obc_N_vVel_mean              =   1.4669333069301E-05
(PID.TID 0000.0001) %MON obc_N_vVel_sd                =   3.8216367815884E-12
(PID.TID 0000.0001) %MON obc_N_vVel_Int               =   9.6817598257388E+02
(PID.TID 0000.0001) // =======================================================
(PID.TID 0000.0001) // End OBCS MONITOR field statistics
(PID.TID 0000.0001) // =======================================================
 cg2d: Sum(rhs),rhsMax =   4.51210158902396E+00  2.99917957318067E+02
(PID.TID 0000.0001)      cg2d_init_res =   6.02076075463896E-06
(PID.TID 0000.0001)      cg2d_iters(min,last) =      -1      78
(PID.TID 0000.0001)      cg2d_last_res =   9.64036585954741E-12
(PID.TID 0000.0001) // =======================================================
(PID.TID 0000.0001) // Begin MONITOR dynamic field statistics
(PID.TID 0000.0001) // =======================================================
(PID.TID 0000.0001) %MON time_tsnumber                =                   837
(PID.TID 0000.0001) %MON time_secondsf                =   8.3700000000000E+04
(PID.TID 0000.0001) %MON dynstat_eta_max              =   5.7965766296408E+00
(PID.TID 0000.0001) %MON dynstat_eta_min              =  -1.4195561093067E+01
(PID.TID 0000.0001) %MON dynstat_eta_mean             =  -2.5060375773920E+00
(PID.TID 0000.0001) %MON dynstat_eta_sd               =   4.9506151408031E+00
(PID.TID 0000.0001) %MON dynstat_eta_del2             =   2.0714556827073E-01
(PID.TID 0000.0001) %MON dynstat_uvel_max             =   2.9508976016928E-03
(PID.TID 0000.0001) %MON dynstat_uvel_min             =  -1.3194229857138E-02
(PID.TID 0000.0001) %MON dynstat_uvel_mean            =  -1.1759773272695E-07
(PID.TID 0000.0001) %MON dynstat_uvel_sd              =   3.9277082554911E-04
(PID.TID 0000.0001) %MON dynstat_uvel_del2            =   6.2745308369377E-07
(PID.TID 0000.0001) %MON dynstat_vvel_max             =   1.0702821793724E-02
(PID.TID 0000.0001) %MON dynstat_vvel_min             =  -5.0108994814595E-03
(PID.TID 0000.0001) %MON dynstat_vvel_mean            =   1.4903700333655E-05
(PID.TID 0000.0001) %MON dynstat_vvel_sd              =   2.6479954350297E-04
(PID.TID 0000.0001) %MON dynstat_vvel_del2            =   5.5069683893943E-07
(PID.TID 0000.0001) %MON dynstat_wvel_max             =   4.9431583892047E-04
(PID.TID 0000.0001) %MON dynstat_wvel_min             =  -4.9544662508399E-04
(PID.TID 0000.0001) %MON dynstat_wvel_mean            =   6.5978794506813E-09
(PID.TID 0000.0001) %MON dynstat_wvel_sd              =   1.6070718344367E-05
(PID.TID 0000.0001) %MON dynstat_wvel_del2            =   6.2559024125778E-08
(PID.TID 0000.0001) %MON dynstat_theta_max            =   1.2000000000000E+00
(PID.TID 0000.0001) %MON dynstat_theta_min            =  -1.0000000000000E+00
(PID.TID 0000.0001) %MON dynstat_theta_mean           =   5.6888454735219E-01
(PID.TID 0000.0001) %MON dynstat_theta_sd             =   8.6846616068257E-01
(PID.TID 0000.0001) %MON dynstat_theta_del2           =   1.7246331581289E-06
(PID.TID 0000.0001) %MON dynstat_salt_max             =   3.4700000000000E+01
(PID.TID 0000.0001) %MON dynstat_salt_min             =   3.4000000000000E+01
(PID.TID 0000.0001) %MON dynstat_salt_mean            =   3.4499167992882E+01
(PID.TID 0000.0001) %MON dynstat_salt_sd              =   2.7632253492669E-01
(PID.TID 0000.0001) %MON dynstat_salt_del2            =   6.7456050432907E-07
(PID.TID 0000.0001) %MON advcfl_uvel_max              =   1.3194229857138E-03
(PID.TID 0000.0001) %MON advcfl_vvel_max              =   1.0702821793724E-03
(PID.TID 0000.0001) %MON advcfl_wvel_max              =   2.4772331254200E-03
(PID.TID 0000.0001) %MON advcfl_W_hf_max              =   2.4772331254200E-03
(PID.TID 0000.0001) %MON pe_b_mean                    =  -8.3050424680965E-01
(PID.TID 0000.0001) %MON ke_max                       =   5.1890382394770E-05
(PID.TID 0000.0001) %MON ke_mean                      =   1.1077284970094E-07
(PID.TID 0000.0001) %MON ke_vol                       =   4.2724942069675E+12
(PID.TID 0000.0001) // =======================================================
(PID.TID 0000.0001) // End MONITOR dynamic field statistics
(PID.TID 0000.0001) // =======================================================
(PID.TID 0000.0001) // =======================================================
(PID.TID 0000.0001) // Begin OBCS MONITOR field statistics
(PID.TID 0000.0001) // =======================================================
(PID.TID 0000.0001) %MON obc_N_vVel_max               =   1.4668489216664E-05
(PID.TID 0000.0001) %MON obc_N_vVel_min               =   1.4668489216664E-05
(PID.TID 0000.0001) %MON obc_N_vVel_mean              =   1.4668489216664E-05
(PID.TID 0000.0001) %MON obc_N_vVel_sd                =   1.2349551629086E-12
(PID.TID 0000.0001) %MON obc_N_vVel_Int               =   9.6812028829981E+02
(PID.TID 0000.0001) // =======================================================
(PID.TID 0000.0001) // End OBCS MONITOR field statistics
(PID.TID 0000.0001) // =======================================================
 cg2d: Sum(rhs),rhsMax =   4.51212173075473E+00  2.99918031201793E+02
(PID.TID 0000.0001)      cg2d_init_res =   6.01480575527346E-06
(PID.TID 0000.0001)      cg2d_iters(min,last) =      -1      78
(PID.TID 0000.0001)      cg2d_last_res =   9.66451853379953E-12
(PID.TID 0000.0001) // =======================================================
(PID.TID 0000.0001) // Begin MONITOR dynamic field statistics
(PID.TID 0000.0001) // =======================================================
(PID.TID 0000.0001) %MON time_tsnumber                =                   838
(PID.TID 0000.0001) %MON time_secondsf                =   8.3800000000000E+04
(PID.TID 0000.0001) %MON dynstat_eta_max              =   5.7965691723883E+00
(PID.TID 0000.0001) %MON dynstat_eta_min              =  -1.4195584353678E+01
(PID.TID 0000.0001) %MON dynstat_eta_mean             =  -2.5060493815385E+00
(PID.TID 0000.0001) %MON dynstat_eta_sd               =   4.9506191850523E+00
(PID.TID 0000.0001) %MON dynstat_eta_del2             =   2.0714558671458E-01
(PID.TID 0000.0001) %MON dynstat_uvel_max             =   2.9591201610479E-03
(PID.TID 0000.0001) %MON dynstat_uvel_min             =  -1.3231018110595E-02
(PID.TID 0000.0001) %MON dynstat_uvel_mean            =  -1.1760691746676E-07
(PID.TID 0000.0001) %MON dynstat_uvel_sd              =   3.9379155130725E-04
(PID.TID 0000.0001) %MON dynstat_uvel_del2            =   6.2873299139854E-07
(PID.TID 0000.0001) %MON dynstat_vvel_max             =   1.0731314483146E-02
(PID.TID 0000.0001) %MON dynstat_vvel_min             =  -5.0209973561683E-03
(PID.TID 0000.0001) %MON dynstat_vvel_mean            =   1.4903023913138E-05
(PID.TID 0000.0001) %MON dynstat_vvel_sd              =   2.6536340793578E-04
(PID.TID 0000.0001) %MON dynstat_vvel_del2            =   5.5137102893567E-07
(PID.TID 0000.0001) %MON dynstat_wvel_max             =   4.9585298708088E-04
(PID.TID 0000.0001) %MON dynstat_wvel_min             =  -4.9686297947857E-04
(PID.TID 0000.0001) %MON dynstat_wvel_mean            =   6.5986564359825E-09
(PID.TID 0000.0001) %MON dynstat_wvel_sd              =   1.5976117334700E-05
(PID.TID 0000.0001) %MON dynstat_wvel_del2            =   6.1620092656620E-08
(PID.TID 0000.0001) %MON dynstat_theta_max            =   1.2000000000000E+00
(PID.TID 0000.0001) %MON dynstat_theta_min            =  -1.0000000000000E+00
(PID.TID 0000.0001) %MON dynstat_theta_mean           =   5.6888401186529E-01
(PID.TID 0000.0001) %MON dynstat_theta_sd             =   8.6846586618421E-01
(PID.TID 0000.0001) %MON dynstat_theta_del2           =   1.7283218611560E-06
(PID.TID 0000.0001) %MON dynstat_salt_max             =   3.4700000000000E+01
(PID.TID 0000.0001) %MON dynstat_salt_min             =   3.4000000000000E+01
(PID.TID 0000.0001) %MON dynstat_salt_mean            =   3.4499167778765E+01
(PID.TID 0000.0001) %MON dynstat_salt_sd              =   2.7632242260579E-01
(PID.TID 0000.0001) %MON dynstat_salt_del2            =   6.7599668315981E-07
(PID.TID 0000.0001) %MON advcfl_uvel_max              =   1.3231018110595E-03
(PID.TID 0000.0001) %MON advcfl_vvel_max              =   1.0731314483146E-03
(PID.TID 0000.0001) %MON advcfl_wvel_max              =   2.4843148973928E-03
(PID.TID 0000.0001) %MON advcfl_W_hf_max              =   2.4843148973928E-03
(PID.TID 0000.0001) %MON pe_b_mean                    =  -8.3050750795430E-01
(PID.TID 0000.0001) %MON ke_max                       =   5.2205120608494E-05
(PID.TID 0000.0001) %MON ke_mean                      =   1.1131577583101E-07
(PID.TID 0000.0001) %MON ke_vol                       =   4.2724941367903E+12
(PID.TID 0000.0001) // =======================================================
(PID.TID 0000.0001) // End MONITOR dynamic field statistics
(PID.TID 0000.0001) // =======================================================
(PID.TID 0000.0001) // =======================================================
(PID.TID 0000.0001) // Begin OBCS MONITOR field statistics
(PID.TID 0000.0001) // =======================================================
(PID.TID 0000.0001) %MON obc_N_vVel_max               =   1.4667792433534E-05
(PID.TID 0000.0001) %MON obc_N_vVel_min               =   1.4667792433534E-05
(PID.TID 0000.0001) %MON obc_N_vVel_mean              =   1.4667792433534E-05
(PID.TID 0000.0001) %MON obc_N_vVel_sd                =   2.9383154431616E-12
(PID.TID 0000.0001) %MON obc_N_vVel_Int               =   9.6807430061322E+02
(PID.TID 0000.0001) // =======================================================
(PID.TID 0000.0001) // End OBCS MONITOR field statistics
(PID.TID 0000.0001) // =======================================================
 cg2d: Sum(rhs),rhsMax =   4.51214185385273E+00  2.99918105121650E+02
(PID.TID 0000.0001)      cg2d_init_res =   6.00865978230629E-06
(PID.TID 0000.0001)      cg2d_iters(min,last) =      -1      78
(PID.TID 0000.0001)      cg2d_last_res =   9.68833826986044E-12
(PID.TID 0000.0001) // =======================================================
(PID.TID 0000.0001) // Begin MONITOR dynamic field statistics
(PID.TID 0000.0001) // =======================================================
(PID.TID 0000.0001) %MON time_tsnumber                =                   839
(PID.TID 0000.0001) %MON time_secondsf                =   8.3900000000000E+04
(PID.TID 0000.0001) %MON dynstat_eta_max              =   5.7965617438681E+00
(PID.TID 0000.0001) %MON dynstat_eta_min              =  -1.4195607596945E+01
(PID.TID 0000.0001) %MON dynstat_eta_mean             =  -2.5060611756437E+00
(PID.TID 0000.0001) %MON dynstat_eta_sd               =   4.9506232268057E+00
(PID.TID 0000.0001) %MON dynstat_eta_del2             =   2.0714560520670E-01
(PID.TID 0000.0001) %MON dynstat_uvel_max             =   2.9673614745818E-03
(PID.TID 0000.0001) %MON dynstat_uvel_min             =  -1.3267881922147E-02
(PID.TID 0000.0001) %MON dynstat_uvel_mean            =  -1.1761679897052E-07
(PID.TID 0000.0001) %MON dynstat_uvel_sd              =   3.9481553857455E-04
(PID.TID 0000.0001) %MON dynstat_uvel_del2            =   6.3001674178044E-07
(PID.TID 0000.0001) %MON dynstat_vvel_max             =   1.0759860745905E-02
(PID.TID 0000.0001) %MON dynstat_vvel_min             =  -5.0311059184560E-03
(PID.TID 0000.0001) %MON dynstat_vvel_mean            =   1.4902534251754E-05
(PID.TID 0000.0001) %MON dynstat_vvel_sd              =   2.6592931996134E-04
(PID.TID 0000.0001) %MON dynstat_vvel_del2            =   5.5205476498695E-07
(PID.TID 0000.0001) %MON dynstat_wvel_max             =   4.9739377620149E-04
(PID.TID 0000.0001) %MON dynstat_wvel_min             =  -4.9828297430968E-04
(PID.TID 0000.0001) %MON dynstat_wvel_mean            =   6.5997495110084E-09
(PID.TID 0000.0001) %MON dynstat_wvel_sd              =   1.5881056982877E-05
(PID.TID 0000.0001) %MON dynstat_wvel_del2            =   6.0671844167991E-08
(PID.TID 0000.0001) %MON dynstat_theta_max            =   1.2000000000000E+00
(PID.TID 0000.0001) %MON dynstat_theta_min            =  -1.0000000000000E+00
(PID.TID 0000.0001) %MON dynstat_theta_mean           =   5.6888347517049E-01
(PID.TID 0000.0001) %MON dynstat_theta_sd             =   8.6846557116818E-01
(PID.TID 0000.0001) %MON dynstat_theta_del2           =   1.7319935114557E-06
(PID.TID 0000.0001) %MON dynstat_salt_max             =   3.4700000000000E+01
(PID.TID 0000.0001) %MON dynstat_salt_min             =   3.4000000000000E+01
(PID.TID 0000.0001) %MON dynstat_salt_mean            =   3.4499167564170E+01
(PID.TID 0000.0001) %MON dynstat_salt_sd              =   2.7632231007558E-01
(PID.TID 0000.0001) %MON dynstat_salt_del2            =   6.7742967856699E-07
(PID.TID 0000.0001) %MON advcfl_uvel_max              =   1.3267881922147E-03
(PID.TID 0000.0001) %MON advcfl_vvel_max              =   1.0759860745905E-03
(PID.TID 0000.0001) %MON advcfl_wvel_max              =   2.4914148715484E-03
(PID.TID 0000.0001) %MON advcfl_W_hf_max              =   2.4914148715484E-03
(PID.TID 0000.0001) %MON pe_b_mean                    =  -8.3051076575068E-01
(PID.TID 0000.0001) %MON ke_max                       =   5.2521593809234E-05
(PID.TID 0000.0001) %MON ke_mean                      =   1.1186185052365E-07
(PID.TID 0000.0001) %MON ke_vol                       =   4.2724940666737E+12
(PID.TID 0000.0001) // =======================================================
(PID.TID 0000.0001) // End MONITOR dynamic field statistics
(PID.TID 0000.0001) // =======================================================
(PID.TID 0000.0001) // =======================================================
(PID.TID 0000.0001) // Begin OBCS MONITOR field statistics
(PID.TID 0000.0001) // =======================================================
(PID.TID 0000.0001) %MON obc_N_vVel_max               =   1.4667261046939E-05
(PID.TID 0000.0001) %MON obc_N_vVel_min               =   1.4667261046938E-05
(PID.TID 0000.0001) %MON obc_N_vVel_mean              =   1.4667261046938E-05
(PID.TID 0000.0001) %MON obc_N_vVel_sd                =   2.1927123182179E-12
(PID.TID 0000.0001) %MON obc_N_vVel_Int               =   9.6803922909792E+02
(PID.TID 0000.0001) // =======================================================
(PID.TID 0000.0001) // End OBCS MONITOR field statistics
(PID.TID 0000.0001) // =======================================================
 cg2d: Sum(rhs),rhsMax =   4.51216195850618E+00  2.99918179085848E+02
(PID.TID 0000.0001)      cg2d_init_res =   6.00309406365679E-06
(PID.TID 0000.0001)      cg2d_iters(min,last) =      -1      78
(PID.TID 0000.0001)      cg2d_last_res =   9.71137083220844E-12
(PID.TID 0000.0001) // =======================================================
(PID.TID 0000.0001) // Begin MONITOR dynamic field statistics
(PID.TID 0000.0001) // =======================================================
(PID.TID 0000.0001) %MON time_tsnumber                =                   840
(PID.TID 0000.0001) %MON time_secondsf                =   8.4000000000000E+04
(PID.TID 0000.0001) %MON dynstat_eta_max              =   5.7965543438310E+00
(PID.TID 0000.0001) %MON dynstat_eta_min              =  -1.4195630823245E+01
(PID.TID 0000.0001) %MON dynstat_eta_mean             =  -2.5060729598808E+00
(PID.TID 0000.0001) %MON dynstat_eta_sd               =   4.9506272661398E+00
(PID.TID 0000.0001) %MON dynstat_eta_del2             =   2.0714562374720E-01
(PID.TID 0000.0001) %MON dynstat_uvel_max             =   2.9756215709540E-03
(PID.TID 0000.0001) %MON dynstat_uvel_min             =  -1.3304821269760E-02
(PID.TID 0000.0001) %MON dynstat_uvel_mean            =  -1.1762743867617E-07
(PID.TID 0000.0001) %MON dynstat_uvel_sd              =   3.9584279270730E-04
(PID.TID 0000.0001) %MON dynstat_uvel_del2            =   6.3130436999795E-07
(PID.TID 0000.0001) %MON dynstat_vvel_max             =   1.0788460608156E-02
(PID.TID 0000.0001) %MON dynstat_vvel_min             =  -5.0412251937431E-03
(PID.TID 0000.0001) %MON dynstat_vvel_mean            =   1.4902253851581E-05
(PID.TID 0000.0001) %MON dynstat_vvel_sd              =   2.6649882190407E-04
(PID.TID 0000.0001) %MON dynstat_vvel_del2            =   5.5277494032845E-07
(PID.TID 0000.0001) %MON dynstat_wvel_max             =   4.9893821216810E-04
(PID.TID 0000.0001) %MON dynstat_wvel_min             =  -4.9970661541248E-04
(PID.TID 0000.0001) %MON dynstat_wvel_mean            =   6.6011927740621E-09
(PID.TID 0000.0001) %MON dynstat_wvel_sd              =   1.5793841322590E-05
(PID.TID 0000.0001) %MON dynstat_wvel_del2            =   5.9803648271027E-08
(PID.TID 0000.0001) %MON dynstat_theta_max            =   1.2000000000000E+00
(PID.TID 0000.0001) %MON dynstat_theta_min            =  -1.0000000000000E+00
(PID.TID 0000.0001) %MON dynstat_theta_mean           =   5.6888293727113E-01
(PID.TID 0000.0001) %MON dynstat_theta_sd             =   8.6846527562164E-01
(PID.TID 0000.0001) %MON dynstat_theta_del2           =   1.7356189426614E-06
(PID.TID 0000.0001) %MON dynstat_salt_max             =   3.4700000000000E+01
(PID.TID 0000.0001) %MON dynstat_salt_min             =   3.4000000000000E+01
(PID.TID 0000.0001) %MON dynstat_salt_mean            =   3.4499167349098E+01
(PID.TID 0000.0001) %MON dynstat_salt_sd              =   2.7632219733192E-01
(PID.TID 0000.0001) %MON dynstat_salt_del2            =   6.7885191244678E-07
(PID.TID 0000.0001) %MON advcfl_uvel_max              =   1.3304821269760E-03
(PID.TID 0000.0001) %MON advcfl_vvel_max              =   1.0788460608156E-03
(PID.TID 0000.0001) %MON advcfl_wvel_max              =   2.4985330770624E-03
(PID.TID 0000.0001) %MON advcfl_W_hf_max              =   2.4985330770624E-03
(PID.TID 0000.0001) %MON pe_b_mean                    =  -8.3051402024414E-01
(PID.TID 0000.0001) %MON ke_max                       =   5.2839809680866E-05
(PID.TID 0000.0001) %MON ke_mean                      =   1.1241150047725E-07
(PID.TID 0000.0001) %MON ke_vol                       =   4.2724939966167E+12
(PID.TID 0000.0001) // =======================================================
(PID.TID 0000.0001) // End MONITOR dynamic field statistics
(PID.TID 0000.0001) // =======================================================
(PID.TID 0000.0001) // =======================================================
(PID.TID 0000.0001) // Begin OBCS MONITOR field statistics
(PID.TID 0000.0001) // =======================================================
(PID.TID 0000.0001) %MON obc_N_vVel_max               =   1.4666914637470E-05
(PID.TID 0000.0001) %MON obc_N_vVel_min               =   1.4666914637470E-05
(PID.TID 0000.0001) %MON obc_N_vVel_mean              =   1.4666914637470E-05
(PID.TID 0000.0001) %MON obc_N_vVel_sd                =  -1.1683926152312E-23
(PID.TID 0000.0001) %MON obc_N_vVel_Int               =   9.6801636607304E+02
(PID.TID 0000.0001) // =======================================================
(PID.TID 0000.0001) // End OBCS MONITOR field statistics
(PID.TID 0000.0001) // =======================================================
 cg2d: Sum(rhs),rhsMax =   4.51218204493721E+00  2.99918253102986E+02
(PID.TID 0000.0001)      cg2d_init_res =   5.99884340615393E-06
(PID.TID 0000.0001)      cg2d_iters(min,last) =      -1      78
(PID.TID 0000.0001)      cg2d_last_res =   9.73311670843008E-12
(PID.TID 0000.0001) // =======================================================
(PID.TID 0000.0001) // Begin MONITOR dynamic field statistics
(PID.TID 0000.0001) // =======================================================
(PID.TID 0000.0001) %MON time_tsnumber                =                   841
(PID.TID 0000.0001) %MON time_secondsf                =   8.4100000000000E+04
(PID.TID 0000.0001) %MON dynstat_eta_max              =   5.7965469719776E+00
(PID.TID 0000.0001) %MON dynstat_eta_min              =  -1.4195654033002E+01
(PID.TID 0000.0001) %MON dynstat_eta_mean             =  -2.5060847344449E+00
(PID.TID 0000.0001) %MON dynstat_eta_sd               =   4.9506313031358E+00
(PID.TID 0000.0001) %MON dynstat_eta_del2             =   2.0714564233614E-01
(PID.TID 0000.0001) %MON dynstat_uvel_max             =   2.9839004785757E-03
(PID.TID 0000.0001) %MON dynstat_uvel_min             =  -1.3341836130621E-02
(PID.TID 0000.0001) %MON dynstat_uvel_mean            =  -1.1763887258993E-07
(PID.TID 0000.0001) %MON dynstat_uvel_sd              =   3.9687331850475E-04
(PID.TID 0000.0001) %MON dynstat_uvel_del2            =   6.3259591065695E-07
(PID.TID 0000.0001) %MON dynstat_vvel_max             =   1.0817114095785E-02
(PID.TID 0000.0001) %MON dynstat_vvel_min             =  -5.0513552070264E-03
(PID.TID 0000.0001) %MON dynstat_vvel_mean            =   1.4902206353781E-05
(PID.TID 0000.0001) %MON dynstat_vvel_sd              =   2.6707327444163E-04
(PID.TID 0000.0001) %MON dynstat_vvel_del2            =   5.5355468068341E-07
(PID.TID 0000.0001) %MON dynstat_wvel_max             =   5.0048630083781E-04
(PID.TID 0000.0001) %MON dynstat_wvel_min             =  -5.0113390860407E-04
(PID.TID 0000.0001) %MON dynstat_wvel_mean            =   6.6030201672368E-09
(PID.TID 0000.0001) %MON dynstat_wvel_sd              =   1.5721904779524E-05
(PID.TID 0000.0001) %MON dynstat_wvel_del2            =   5.9099047023214E-08
(PID.TID 0000.0001) %MON dynstat_theta_max            =   1.2000000000000E+00
(PID.TID 0000.0001) %MON dynstat_theta_min            =  -1.0000000000000E+00
(PID.TID 0000.0001) %MON dynstat_theta_mean           =   5.6888239817201E-01
(PID.TID 0000.0001) %MON dynstat_theta_sd             =   8.6846497953644E-01
(PID.TID 0000.0001) %MON dynstat_theta_del2           =   1.7391738322816E-06
(PID.TID 0000.0001) %MON dynstat_salt_max             =   3.4700000000000E+01
(PID.TID 0000.0001) %MON dynstat_salt_min             =   3.4000000000000E+01
(PID.TID 0000.0001) %MON dynstat_salt_mean            =   3.4499167133550E+01
(PID.TID 0000.0001) %MON dynstat_salt_sd              =   2.7632208437238E-01
(PID.TID 0000.0001) %MON dynstat_salt_del2            =   6.8025708422666E-07
(PID.TID 0000.0001) %MON advcfl_uvel_max              =   1.3341836130621E-03
(PID.TID 0000.0001) %MON advcfl_vvel_max              =   1.0817114095785E-03
(PID.TID 0000.0001) %MON advcfl_wvel_max              =   2.5056695430203E-03
(PID.TID 0000.0001) %MON advcfl_W_hf_max              =   2.5056695430203E-03
(PID.TID 0000.0001) %MON pe_b_mean                    =  -8.3051727148568E-01
(PID.TID 0000.0001) %MON ke_max                       =   5.3159775926563E-05
(PID.TID 0000.0001) %MON ke_mean                      =   1.1296510727762E-07
(PID.TID 0000.0001) %MON ke_vol                       =   4.2724939266183E+12
(PID.TID 0000.0001) // =======================================================
(PID.TID 0000.0001) // End MONITOR dynamic field statistics
(PID.TID 0000.0001) // =======================================================
(PID.TID 0000.0001) // =======================================================
(PID.TID 0000.0001) // Begin OBCS MONITOR field statistics
(PID.TID 0000.0001) // =======================================================
(PID.TID 0000.0001) %MON obc_N_vVel_max               =   1.4666773862231E-05
(PID.TID 0000.0001) %MON obc_N_vVel_min               =   1.4666773862231E-05
(PID.TID 0000.0001) %MON obc_N_vVel_mean              =   1.4666773862231E-05
(PID.TID 0000.0001) %MON obc_N_vVel_sd                =  -1.3286588589133E-23
(PID.TID 0000.0001) %MON obc_N_vVel_Int               =   9.6800707490725E+02
(PID.TID 0000.0001) // =======================================================
(PID.TID 0000.0001) // End OBCS MONITOR field statistics
(PID.TID 0000.0001) // =======================================================
 cg2d: Sum(rhs),rhsMax =   4.51220211341593E+00  2.99918327182010E+02
(PID.TID 0000.0001)      cg2d_init_res =   5.99654217784905E-06
(PID.TID 0000.0001)      cg2d_iters(min,last) =      -1      78
(PID.TID 0000.0001)      cg2d_last_res =   9.75329515315297E-12
(PID.TID 0000.0001) // =======================================================
(PID.TID 0000.0001) // Begin MONITOR dynamic field statistics
(PID.TID 0000.0001) // =======================================================
(PID.TID 0000.0001) %MON time_tsnumber                =                   842
(PID.TID 0000.0001) %MON time_secondsf                =   8.4200000000000E+04
(PID.TID 0000.0001) %MON dynstat_eta_max              =   5.7965396279661E+00
(PID.TID 0000.0001) %MON dynstat_eta_min              =  -1.4195677226692E+01
(PID.TID 0000.0001) %MON dynstat_eta_mean             =  -2.5060964995608E+00
(PID.TID 0000.0001) %MON dynstat_eta_sd               =   4.9506353378888E+00
(PID.TID 0000.0001) %MON dynstat_eta_del2             =   2.0714566097377E-01
(PID.TID 0000.0001) %MON dynstat_uvel_max             =   2.9921982258401E-03
(PID.TID 0000.0001) %MON dynstat_uvel_min             =  -1.3378926481248E-02
(PID.TID 0000.0001) %MON dynstat_uvel_mean            =  -1.1765110695335E-07
(PID.TID 0000.0001) %MON dynstat_uvel_sd              =   3.9790712019052E-04
(PID.TID 0000.0001) %MON dynstat_uvel_del2            =   6.3389139860187E-07
(PID.TID 0000.0001) %MON dynstat_vvel_max             =   1.0845821234588E-02
(PID.TID 0000.0001) %MON dynstat_vvel_min             =  -5.0614959832505E-03
(PID.TID 0000.0001) %MON dynstat_vvel_mean            =   1.4902416286721E-05
(PID.TID 0000.0001) %MON dynstat_vvel_sd              =   2.6765373969106E-04
(PID.TID 0000.0001) %MON dynstat_vvel_del2            =   5.5441121068711E-07
(PID.TID 0000.0001) %MON dynstat_wvel_max             =   5.0203804805715E-04
(PID.TID 0000.0001) %MON dynstat_wvel_min             =  -5.0256485971163E-04
(PID.TID 0000.0001) %MON dynstat_wvel_mean            =   6.6052652884792E-09
(PID.TID 0000.0001) %MON dynstat_wvel_sd              =   1.5671066398376E-05
(PID.TID 0000.0001) %MON dynstat_wvel_del2            =   5.8626169042384E-08
(PID.TID 0000.0001) %MON dynstat_theta_max            =   1.2000000000000E+00
(PID.TID 0000.0001) %MON dynstat_theta_min            =  -1.0000000000000E+00
(PID.TID 0000.0001) %MON dynstat_theta_mean           =   5.6888185787993E-01
(PID.TID 0000.0001) %MON dynstat_theta_sd             =   8.6846468290563E-01
(PID.TID 0000.0001) %MON dynstat_theta_del2           =   1.7426408633169E-06
(PID.TID 0000.0001) %MON dynstat_salt_max             =   3.4700000000000E+01
(PID.TID 0000.0001) %MON dynstat_salt_min             =   3.4000000000000E+01
(PID.TID 0000.0001) %MON dynstat_salt_mean            =   3.4499166917530E+01
(PID.TID 0000.0001) %MON dynstat_salt_sd              =   2.7632197119444E-01
(PID.TID 0000.0001) %MON dynstat_salt_del2            =   6.8164070305840E-07
(PID.TID 0000.0001) %MON advcfl_uvel_max              =   1.3378926481248E-03
(PID.TID 0000.0001) %MON advcfl_vvel_max              =   1.0845821234588E-03
(PID.TID 0000.0001) %MON advcfl_wvel_max              =   2.5128242985581E-03
(PID.TID 0000.0001) %MON advcfl_W_hf_max              =   2.5128242985581E-03
(PID.TID 0000.0001) %MON pe_b_mean                    =  -8.3052051953445E-01
(PID.TID 0000.0001) %MON ke_max                       =   5.3481500269192E-05
(PID.TID 0000.0001) %MON ke_mean                      =   1.1352297563425E-07
(PID.TID 0000.0001) %MON ke_vol                       =   4.2724938566774E+12
(PID.TID 0000.0001) // =======================================================
(PID.TID 0000.0001) // End MONITOR dynamic field statistics
(PID.TID 0000.0001) // =======================================================
(PID.TID 0000.0001) // =======================================================
(PID.TID 0000.0001) // Begin OBCS MONITOR field statistics
(PID.TID 0000.0001) // =======================================================
(PID.TID 0000.0001) %MON obc_N_vVel_max               =   1.4666860228121E-05
(PID.TID 0000.0001) %MON obc_N_vVel_min               =   1.4666860228121E-05
(PID.TID 0000.0001) %MON obc_N_vVel_mean              =   1.4666860228121E-05
(PID.TID 0000.0001) %MON obc_N_vVel_sd                =  -1.4217166778255E-24
(PID.TID 0000.0001) %MON obc_N_vVel_Int               =   9.6801277505599E+02
(PID.TID 0000.0001) // =======================================================
(PID.TID 0000.0001) // End OBCS MONITOR field statistics
(PID.TID 0000.0001) // =======================================================
 cg2d: Sum(rhs),rhsMax =   4.51222216424801E+00  2.99918401332197E+02
(PID.TID 0000.0001)      cg2d_init_res =   5.99663320216204E-06
(PID.TID 0000.0001)      cg2d_iters(min,last) =      -1      78
(PID.TID 0000.0001)      cg2d_last_res =   9.77196418721237E-12
(PID.TID 0000.0001) // =======================================================
(PID.TID 0000.0001) // Begin MONITOR dynamic field statistics
(PID.TID 0000.0001) // =======================================================
(PID.TID 0000.0001) %MON time_tsnumber                =                   843
(PID.TID 0000.0001) %MON time_secondsf                =   8.4300000000000E+04
(PID.TID 0000.0001) %MON dynstat_eta_max              =   5.7965323114065E+00
(PID.TID 0000.0001) %MON dynstat_eta_min              =  -1.4195700404829E+01
(PID.TID 0000.0001) %MON dynstat_eta_mean             =  -2.5061082554759E+00
(PID.TID 0000.0001) %MON dynstat_eta_sd               =   4.9506393704985E+00
(PID.TID 0000.0001) %MON dynstat_eta_del2             =   2.0714567966016E-01
(PID.TID 0000.0001) %MON dynstat_uvel_max             =   3.0005148410730E-03
(PID.TID 0000.0001) %MON dynstat_uvel_min             =  -1.3416092297280E-02
(PID.TID 0000.0001) %MON dynstat_uvel_mean            =  -1.1766412866407E-07
(PID.TID 0000.0001) %MON dynstat_uvel_sd              =   3.9894420140743E-04
(PID.TID 0000.0001) %MON dynstat_uvel_del2            =   6.3519086922417E-07
(PID.TID 0000.0001) %MON dynstat_vvel_max             =   1.0874582049728E-02
(PID.TID 0000.0001) %MON dynstat_vvel_min             =  -5.0716475471324E-03
(PID.TID 0000.0001) %MON dynstat_vvel_mean            =   1.4902908780449E-05
(PID.TID 0000.0001) %MON dynstat_vvel_sd              =   2.6824089595239E-04
(PID.TID 0000.0001) %MON dynstat_vvel_del2            =   5.5535432227296E-07
(PID.TID 0000.0001) %MON dynstat_wvel_max             =   5.0359345962015E-04
(PID.TID 0000.0001) %MON dynstat_wvel_min             =  -5.0399947445702E-04
(PID.TID 0000.0001) %MON dynstat_wvel_mean            =   6.6079603983362E-09
(PID.TID 0000.0001) %MON dynstat_wvel_sd              =   1.5644935555013E-05
(PID.TID 0000.0001) %MON dynstat_wvel_del2            =   5.8428982007163E-08
(PID.TID 0000.0001) %MON dynstat_theta_max            =   1.2000000000000E+00
(PID.TID 0000.0001) %MON dynstat_theta_min            =  -1.0000000000000E+00
(PID.TID 0000.0001) %MON dynstat_theta_mean           =   5.6888131640249E-01
(PID.TID 0000.0001) %MON dynstat_theta_sd             =   8.6846438571048E-01
(PID.TID 0000.0001) %MON dynstat_theta_del2           =   1.7460110375552E-06
(PID.TID 0000.0001) %MON dynstat_salt_max             =   3.4700000000000E+01
(PID.TID 0000.0001) %MON dynstat_salt_min             =   3.4000000000000E+01
(PID.TID 0000.0001) %MON dynstat_salt_mean            =   3.4499166701037E+01
(PID.TID 0000.0001) %MON dynstat_salt_sd              =   2.7632185779218E-01
(PID.TID 0000.0001) %MON dynstat_salt_del2            =   6.8300043766872E-07
(PID.TID 0000.0001) %MON advcfl_uvel_max              =   1.3416092297280E-03
(PID.TID 0000.0001) %MON advcfl_vvel_max              =   1.0874582049728E-03
(PID.TID 0000.0001) %MON advcfl_wvel_max              =   2.5199973722851E-03
(PID.TID 0000.0001) %MON advcfl_W_hf_max              =   2.5199973722851E-03
(PID.TID 0000.0001) %MON pe_b_mean                    =  -8.3052376445526E-01
(PID.TID 0000.0001) %MON ke_max                       =   5.3804990450527E-05
(PID.TID 0000.0001) %MON ke_mean                      =   1.1408530970348E-07
(PID.TID 0000.0001) %MON ke_vol                       =   4.2724937867926E+12
(PID.TID 0000.0001) // =======================================================
(PID.TID 0000.0001) // End MONITOR dynamic field statistics
(PID.TID 0000.0001) // =======================================================
(PID.TID 0000.0001) // =======================================================
(PID.TID 0000.0001) // Begin OBCS MONITOR field statistics
(PID.TID 0000.0001) // =======================================================
(PID.TID 0000.0001) %MON obc_N_vVel_max               =   1.4667195905042E-05
(PID.TID 0000.0001) %MON obc_N_vVel_min               =   1.4667195905041E-05
(PID.TID 0000.0001) %MON obc_N_vVel_mean              =   1.4667195905042E-05
(PID.TID 0000.0001) %MON obc_N_vVel_sd                =  -4.7562885221799E-24
(PID.TID 0000.0001) %MON obc_N_vVel_Int               =   9.6803492973275E+02
(PID.TID 0000.0001) // =======================================================
(PID.TID 0000.0001) // End OBCS MONITOR field statistics
(PID.TID 0000.0001) // =======================================================
 cg2d: Sum(rhs),rhsMax =   4.51224219777968E+00  2.99918475563120E+02
(PID.TID 0000.0001)      cg2d_init_res =   5.99936633544426E-06
(PID.TID 0000.0001)      cg2d_iters(min,last) =      -1      78
(PID.TID 0000.0001)      cg2d_last_res =   9.78943172445793E-12
(PID.TID 0000.0001) // =======================================================
(PID.TID 0000.0001) // Begin MONITOR dynamic field statistics
(PID.TID 0000.0001) // =======================================================
(PID.TID 0000.0001) %MON time_tsnumber                =                   844
(PID.TID 0000.0001) %MON time_secondsf                =   8.4400000000000E+04
(PID.TID 0000.0001) %MON dynstat_eta_max              =   5.7965250218662E+00
(PID.TID 0000.0001) %MON dynstat_eta_min              =  -1.4195723567979E+01
(PID.TID 0000.0001) %MON dynstat_eta_mean             =  -2.5061200024623E+00
(PID.TID 0000.0001) %MON dynstat_eta_sd               =   4.9506434010722E+00
(PID.TID 0000.0001) %MON dynstat_eta_del2             =   2.0714569839524E-01
(PID.TID 0000.0001) %MON dynstat_uvel_max             =   3.0088503526180E-03
(PID.TID 0000.0001) %MON dynstat_uvel_min             =  -1.3453333553638E-02
(PID.TID 0000.0001) %MON dynstat_uvel_mean            =  -1.1767792219187E-07
(PID.TID 0000.0001) %MON dynstat_uvel_sd              =   3.9998456519916E-04
(PID.TID 0000.0001) %MON dynstat_uvel_del2            =   6.3649435824965E-07
(PID.TID 0000.0001) %MON dynstat_vvel_max             =   1.0903396566103E-02
(PID.TID 0000.0001) %MON dynstat_vvel_min             =  -5.0818099232464E-03
(PID.TID 0000.0001) %MON dynstat_vvel_mean            =   1.4903709233943E-05
(PID.TID 0000.0001) %MON dynstat_vvel_sd              =   2.6883499144671E-04
(PID.TID 0000.0001) %MON dynstat_vvel_del2            =   5.5638558758750E-07
(PID.TID 0000.0001) %MON dynstat_wvel_max             =   5.0515254130355E-04
(PID.TID 0000.0001) %MON dynstat_wvel_min             =  -5.0543775859999E-04
(PID.TID 0000.0001) %MON dynstat_wvel_mean            =   6.6111361032387E-09
(PID.TID 0000.0001) %MON dynstat_wvel_sd              =   1.5644554208189E-05
(PID.TID 0000.0001) %MON dynstat_wvel_del2            =   5.8521290215857E-08
(PID.TID 0000.0001) %MON dynstat_theta_max            =   1.2000000000000E+00
(PID.TID 0000.0001) %MON dynstat_theta_min            =  -1.0000000000000E+00
(PID.TID 0000.0001) %MON dynstat_theta_mean           =   5.6888077374819E-01
(PID.TID 0000.0001) %MON dynstat_theta_sd             =   8.6846408792938E-01
(PID.TID 0000.0001) %MON dynstat_theta_del2           =   1.7492841347659E-06
(PID.TID 0000.0001) %MON dynstat_salt_max             =   3.4700000000000E+01
(PID.TID 0000.0001) %MON dynstat_salt_min             =   3.4000000000000E+01
(PID.TID 0000.0001) %MON dynstat_salt_mean            =   3.4499166484076E+01
(PID.TID 0000.0001) %MON dynstat_salt_sd              =   2.7632174415838E-01
(PID.TID 0000.0001) %MON dynstat_salt_del2            =   6.8433622561774E-07
(PID.TID 0000.0001) %MON advcfl_uvel_max              =   1.3453333553638E-03
(PID.TID 0000.0001) %MON advcfl_vvel_max              =   1.0903396566103E-03
(PID.TID 0000.0001) %MON advcfl_wvel_max              =   2.5271887929999E-03
(PID.TID 0000.0001) %MON advcfl_W_hf_max              =   2.5271887929999E-03
(PID.TID 0000.0001) %MON pe_b_mean                    =  -8.3052700631946E-01
(PID.TID 0000.0001) %MON ke_max                       =   5.4130254231419E-05
(PID.TID 0000.0001) %MON ke_mean                      =   1.1465219956581E-07
(PID.TID 0000.0001) %MON ke_vol                       =   4.2724937169625E+12
(PID.TID 0000.0001) // =======================================================
(PID.TID 0000.0001) // End MONITOR dynamic field statistics
(PID.TID 0000.0001) // =======================================================
(PID.TID 0000.0001) // =======================================================
(PID.TID 0000.0001) // Begin OBCS MONITOR field statistics
(PID.TID 0000.0001) // =======================================================
(PID.TID 0000.0001) %MON obc_N_vVel_max               =   1.4667803460745E-05
(PID.TID 0000.0001) %MON obc_N_vVel_min               =   1.4667803460745E-05
(PID.TID 0000.0001) %MON obc_N_vVel_mean              =   1.4667803460745E-05
(PID.TID 0000.0001) %MON obc_N_vVel_sd                =   3.1134422755779E-12
(PID.TID 0000.0001) %MON obc_N_vVel_Int               =   9.6807502840916E+02
(PID.TID 0000.0001) // =======================================================
(PID.TID 0000.0001) // End OBCS MONITOR field statistics
(PID.TID 0000.0001) // =======================================================
 cg2d: Sum(rhs),rhsMax =   4.51226221439952E+00  2.99918549884606E+02
(PID.TID 0000.0001)      cg2d_init_res =   6.00474506276550E-06
(PID.TID 0000.0001)      cg2d_iters(min,last) =      -1      78
(PID.TID 0000.0001)      cg2d_last_res =   9.80606746350435E-12
(PID.TID 0000.0001) // =======================================================
(PID.TID 0000.0001) // Begin MONITOR dynamic field statistics
(PID.TID 0000.0001) // =======================================================
(PID.TID 0000.0001) %MON time_tsnumber                =                   845
(PID.TID 0000.0001) %MON time_secondsf                =   8.4500000000000E+04
(PID.TID 0000.0001) %MON dynstat_eta_max              =   5.7965177588588E+00
(PID.TID 0000.0001) %MON dynstat_eta_min              =  -1.4195746716755E+01
(PID.TID 0000.0001) %MON dynstat_eta_mean             =  -2.5061317408182E+00
(PID.TID 0000.0001) %MON dynstat_eta_sd               =   4.9506474297279E+00
(PID.TID 0000.0001) %MON dynstat_eta_del2             =   2.0714571717909E-01
(PID.TID 0000.0001) %MON dynstat_uvel_max             =   3.0172047887334E-03
(PID.TID 0000.0001) %MON dynstat_uvel_min             =  -1.3490650224412E-02
(PID.TID 0000.0001) %MON dynstat_uvel_mean            =  -1.1769245911320E-07
(PID.TID 0000.0001) %MON dynstat_uvel_sd              =   4.0102821398869E-04
(PID.TID 0000.0001) %MON dynstat_uvel_del2            =   6.3780190085471E-07
(PID.TID 0000.0001) %MON dynstat_vvel_max             =   1.0932264808059E-02
(PID.TID 0000.0001) %MON dynstat_vvel_min             =  -5.0919831361345E-03
(PID.TID 0000.0001) %MON dynstat_vvel_mean            =   1.4904843011802E-05
(PID.TID 0000.0001) %MON dynstat_vvel_sd              =   2.6943584045041E-04
(PID.TID 0000.0001) %MON dynstat_vvel_del2            =   5.5749838171084E-07
(PID.TID 0000.0001) %MON dynstat_wvel_max             =   5.0671529885555E-04
(PID.TID 0000.0001) %MON dynstat_wvel_min             =  -5.0687971780731E-04
(PID.TID 0000.0001) %MON dynstat_wvel_mean            =   6.6148205873628E-09
(PID.TID 0000.0001) %MON dynstat_wvel_sd              =   1.5668330682084E-05
(PID.TID 0000.0001) %MON dynstat_wvel_del2            =   5.8885047446098E-08
(PID.TID 0000.0001) %MON dynstat_theta_max            =   1.2000000000000E+00
(PID.TID 0000.0001) %MON dynstat_theta_min            =  -1.0000000000000E+00
(PID.TID 0000.0001) %MON dynstat_theta_mean           =   5.6888022992602E-01
(PID.TID 0000.0001) %MON dynstat_theta_sd             =   8.6846378953805E-01
(PID.TID 0000.0001) %MON dynstat_theta_del2           =   1.7524685415746E-06
(PID.TID 0000.0001) %MON dynstat_salt_max             =   3.4700000000000E+01
(PID.TID 0000.0001) %MON dynstat_salt_min             =   3.4000000000000E+01
(PID.TID 0000.0001) %MON dynstat_salt_mean            =   3.4499166266648E+01
(PID.TID 0000.0001) %MON dynstat_salt_sd              =   2.7632163028545E-01
(PID.TID 0000.0001) %MON dynstat_salt_del2            =   6.8565023607709E-07
(PID.TID 0000.0001) %MON advcfl_uvel_max              =   1.3490650224412E-03
(PID.TID 0000.0001) %MON advcfl_vvel_max              =   1.0932264808059E-03
(PID.TID 0000.0001) %MON advcfl_wvel_max              =   2.5343985890366E-03
(PID.TID 0000.0001) %MON advcfl_W_hf_max              =   2.5343985890366E-03
(PID.TID 0000.0001) %MON pe_b_mean                    =  -8.3053024520511E-01
(PID.TID 0000.0001) %MON ke_max                       =   5.4457299391449E-05
(PID.TID 0000.0001) %MON ke_mean                      =   1.1522361892250E-07
(PID.TID 0000.0001) %MON ke_vol                       =   4.2724936471854E+12
(PID.TID 0000.0001) // =======================================================
(PID.TID 0000.0001) // End MONITOR dynamic field statistics
(PID.TID 0000.0001) // =======================================================
(PID.TID 0000.0001) // =======================================================
(PID.TID 0000.0001) // Begin OBCS MONITOR field statistics
(PID.TID 0000.0001) // =======================================================
(PID.TID 0000.0001) %MON obc_N_vVel_max               =   1.4668705612193E-05
(PID.TID 0000.0001) %MON obc_N_vVel_min               =   1.4668705612193E-05
(PID.TID 0000.0001) %MON obc_N_vVel_mean              =   1.4668705612193E-05
(PID.TID 0000.0001) %MON obc_N_vVel_sd                =   1.9691137908568E-12
(PID.TID 0000.0001) %MON obc_N_vVel_Int               =   9.6813457040472E+02
(PID.TID 0000.0001) // =======================================================
(PID.TID 0000.0001) // End OBCS MONITOR field statistics
(PID.TID 0000.0001) // =======================================================
 cg2d: Sum(rhs),rhsMax =   4.51228221453999E+00  2.99918624306724E+02
(PID.TID 0000.0001)      cg2d_init_res =   6.01255012274530E-06
(PID.TID 0000.0001)      cg2d_iters(min,last) =      -1      78
(PID.TID 0000.0001)      cg2d_last_res =   9.82243303233197E-12
(PID.TID 0000.0001) // =======================================================
(PID.TID 0000.0001) // Begin MONITOR dynamic field statistics
(PID.TID 0000.0001) // =======================================================
(PID.TID 0000.0001) %MON time_tsnumber                =                   846
(PID.TID 0000.0001) %MON time_secondsf                =   8.4600000000000E+04
(PID.TID 0000.0001) %MON dynstat_eta_max              =   5.7965105218601E+00
(PID.TID 0000.0001) %MON dynstat_eta_min              =  -1.4195769851816E+01
(PID.TID 0000.0001) %MON dynstat_eta_mean             =  -2.5061434708677E+00
(PID.TID 0000.0001) %MON dynstat_eta_sd               =   4.9506514565914E+00
(PID.TID 0000.0001) %MON dynstat_eta_del2             =   2.0714573601181E-01
(PID.TID 0000.0001) %MON dynstat_uvel_max             =   3.0255781778017E-03
(PID.TID 0000.0001) %MON dynstat_uvel_min             =  -1.3528042282793E-02
(PID.TID 0000.0001) %MON dynstat_uvel_mean            =  -1.1770770047783E-07
(PID.TID 0000.0001) %MON dynstat_uvel_sd              =   4.0207514955592E-04
(PID.TID 0000.0001) %MON dynstat_uvel_del2            =   6.3911353062416E-07
(PID.TID 0000.0001) %MON dynstat_vvel_max             =   1.0961186799481E-02
(PID.TID 0000.0001) %MON dynstat_vvel_min             =  -5.1021672102634E-03
(PID.TID 0000.0001) %MON dynstat_vvel_mean            =   1.4906335117176E-05
(PID.TID 0000.0001) %MON dynstat_vvel_sd              =   2.7004286112676E-04
(PID.TID 0000.0001) %MON dynstat_vvel_del2            =   5.5867869851525E-07
(PID.TID 0000.0001) %MON dynstat_wvel_max             =   5.0828173801073E-04
(PID.TID 0000.0001) %MON dynstat_wvel_min             =  -5.0832535773374E-04
(PID.TID 0000.0001) %MON dynstat_wvel_mean            =   6.6190390902029E-09
(PID.TID 0000.0001) %MON dynstat_wvel_sd              =   1.5712274445052E-05
(PID.TID 0000.0001) %MON dynstat_wvel_del2            =   5.9473481186756E-08
(PID.TID 0000.0001) %MON dynstat_theta_max            =   1.2000000000000E+00
(PID.TID 0000.0001) %MON dynstat_theta_min            =  -1.0000000000000E+00
(PID.TID 0000.0001) %MON dynstat_theta_mean           =   5.6887968494534E-01
(PID.TID 0000.0001) %MON dynstat_theta_sd             =   8.6846349051743E-01
(PID.TID 0000.0001) %MON dynstat_theta_del2           =   1.7555801573534E-06
(PID.TID 0000.0001) %MON dynstat_salt_max             =   3.4700000000000E+01
(PID.TID 0000.0001) %MON dynstat_salt_min             =   3.4000000000000E+01
(PID.TID 0000.0001) %MON dynstat_salt_mean            =   3.4499166048756E+01
(PID.TID 0000.0001) %MON dynstat_salt_sd              =   2.7632151616723E-01
(PID.TID 0000.0001) %MON dynstat_salt_del2            =   6.8694657362414E-07
(PID.TID 0000.0001) %MON advcfl_uvel_max              =   1.3528042282793E-03
(PID.TID 0000.0001) %MON advcfl_vvel_max              =   1.0961186799481E-03
(PID.TID 0000.0001) %MON advcfl_wvel_max              =   2.5416267886687E-03
(PID.TID 0000.0001) %MON advcfl_W_hf_max              =   2.5416267886687E-03
(PID.TID 0000.0001) %MON pe_b_mean                    =  -8.3053348119686E-01
(PID.TID 0000.0001) %MON ke_max                       =   5.4786133729503E-05
(PID.TID 0000.0001) %MON ke_mean                      =   1.1579943399283E-07
(PID.TID 0000.0001) %MON ke_vol                       =   4.2724935774595E+12
(PID.TID 0000.0001) // =======================================================
(PID.TID 0000.0001) // End MONITOR dynamic field statistics
(PID.TID 0000.0001) // =======================================================
(PID.TID 0000.0001) // =======================================================
(PID.TID 0000.0001) // Begin OBCS MONITOR field statistics
(PID.TID 0000.0001) // =======================================================
(PID.TID 0000.0001) %MON obc_N_vVel_max               =   1.4669924943150E-05
(PID.TID 0000.0001) %MON obc_N_vVel_min               =   1.4669924943149E-05
(PID.TID 0000.0001) %MON obc_N_vVel_mean              =   1.4669924943149E-05
(PID.TID 0000.0001) %MON obc_N_vVel_sd                =   3.0884343021185E-12
(PID.TID 0000.0001) %MON obc_N_vVel_Int               =   9.6821504624786E+02
(PID.TID 0000.0001) // =======================================================
(PID.TID 0000.0001) // End OBCS MONITOR field statistics
(PID.TID 0000.0001) // =======================================================
 cg2d: Sum(rhs),rhsMax =   4.51230219867740E+00  2.99918698839716E+02
(PID.TID 0000.0001)      cg2d_init_res =   6.02237407041227E-06
(PID.TID 0000.0001)      cg2d_iters(min,last) =      -1      78
(PID.TID 0000.0001)      cg2d_last_res =   9.83888618062657E-12
(PID.TID 0000.0001) // =======================================================
(PID.TID 0000.0001) // Begin MONITOR dynamic field statistics
(PID.TID 0000.0001) // =======================================================
(PID.TID 0000.0001) %MON time_tsnumber                =                   847
(PID.TID 0000.0001) %MON time_secondsf                =   8.4700000000000E+04
(PID.TID 0000.0001) %MON dynstat_eta_max              =   5.7965033102971E+00
(PID.TID 0000.0001) %MON dynstat_eta_min              =  -1.4195792973868E+01
(PID.TID 0000.0001) %MON dynstat_eta_mean             =  -2.5061551929610E+00
(PID.TID 0000.0001) %MON dynstat_eta_sd               =   4.9506554817967E+00
(PID.TID 0000.0001) %MON dynstat_eta_del2             =   2.0714575489352E-01
(PID.TID 0000.0001) %MON dynstat_uvel_max             =   3.0339705482305E-03
(PID.TID 0000.0001) %MON dynstat_uvel_min             =  -1.3565509700200E-02
(PID.TID 0000.0001) %MON dynstat_uvel_mean            =  -1.1772358748128E-07
(PID.TID 0000.0001) %MON dynstat_uvel_sd              =   4.0312537301328E-04
(PID.TID 0000.0001) %MON dynstat_uvel_del2            =   6.4042927782393E-07
(PID.TID 0000.0001) %MON dynstat_vvel_max             =   1.0990162563671E-02
(PID.TID 0000.0001) %MON dynstat_vvel_min             =  -5.1123621701121E-03
(PID.TID 0000.0001) %MON dynstat_vvel_mean            =   1.4908209907164E-05
(PID.TID 0000.0001) %MON dynstat_vvel_sd              =   2.7065515035127E-04
(PID.TID 0000.0001) %MON dynstat_vvel_del2            =   5.5990666126702E-07
(PID.TID 0000.0001) %MON dynstat_wvel_max             =   5.0985186447623E-04
(PID.TID 0000.0001) %MON dynstat_wvel_min             =  -5.0977468394766E-04
(PID.TID 0000.0001) %MON dynstat_wvel_mean            =   6.6238138442075E-09
(PID.TID 0000.0001) %MON dynstat_wvel_sd              =   1.5770492278671E-05
(PID.TID 0000.0001) %MON dynstat_wvel_del2            =   6.0218179957793E-08
(PID.TID 0000.0001) %MON dynstat_theta_max            =   1.2000000000000E+00
(PID.TID 0000.0001) %MON dynstat_theta_min            =  -1.0000000000000E+00
(PID.TID 0000.0001) %MON dynstat_theta_mean           =   5.6887913881557E-01
(PID.TID 0000.0001) %MON dynstat_theta_sd             =   8.6846319085641E-01
(PID.TID 0000.0001) %MON dynstat_theta_del2           =   1.7586407589410E-06
(PID.TID 0000.0001) %MON dynstat_salt_max             =   3.4700000000000E+01
(PID.TID 0000.0001) %MON dynstat_salt_min             =   3.4000000000000E+01
(PID.TID 0000.0001) %MON dynstat_salt_mean            =   3.4499165830403E+01
(PID.TID 0000.0001) %MON dynstat_salt_sd              =   2.7632140180001E-01
(PID.TID 0000.0001) %MON dynstat_salt_del2            =   6.8823087132320E-07
(PID.TID 0000.0001) %MON advcfl_uvel_max              =   1.3565509700200E-03
(PID.TID 0000.0001) %MON advcfl_vvel_max              =   1.0990162563671E-03
(PID.TID 0000.0001) %MON advcfl_wvel_max              =   2.5492593223811E-03
(PID.TID 0000.0001) %MON advcfl_W_hf_max              =   2.5492593223811E-03
(PID.TID 0000.0001) %MON pe_b_mean                    =  -8.3053671438591E-01
(PID.TID 0000.0001) %MON ke_max                       =   5.5116765062244E-05
(PID.TID 0000.0001) %MON ke_mean                      =   1.1637942252069E-07
(PID.TID 0000.0001) %MON ke_vol                       =   4.2724935077830E+12
(PID.TID 0000.0001) // =======================================================
(PID.TID 0000.0001) // End MONITOR dynamic field statistics
(PID.TID 0000.0001) // =======================================================
(PID.TID 0000.0001) // =======================================================
(PID.TID 0000.0001) // Begin OBCS MONITOR field statistics
(PID.TID 0000.0001) // =======================================================
(PID.TID 0000.0001) %MON obc_N_vVel_max               =   1.4671483604980E-05
(PID.TID 0000.0001) %MON obc_N_vVel_min               =   1.4671483604979E-05
(PID.TID 0000.0001) %MON obc_N_vVel_mean              =   1.4671483604980E-05
(PID.TID 0000.0001) %MON obc_N_vVel_sd                =  -1.0675799780763E-23
(PID.TID 0000.0001) %MON obc_N_vVel_Int               =   9.6831791792865E+02
(PID.TID 0000.0001) // =======================================================
(PID.TID 0000.0001) // End OBCS MONITOR field statistics
(PID.TID 0000.0001) // =======================================================
 cg2d: Sum(rhs),rhsMax =   4.51232216732239E+00  2.99918773494007E+02
(PID.TID 0000.0001)      cg2d_init_res =   6.03363857693692E-06
(PID.TID 0000.0001)      cg2d_iters(min,last) =      -1      78
(PID.TID 0000.0001)      cg2d_last_res =   9.85563008540967E-12
(PID.TID 0000.0001) // =======================================================
(PID.TID 0000.0001) // Begin MONITOR dynamic field statistics
(PID.TID 0000.0001) // =======================================================
(PID.TID 0000.0001) %MON time_tsnumber                =                   848
(PID.TID 0000.0001) %MON time_secondsf                =   8.4800000000000E+04
(PID.TID 0000.0001) %MON dynstat_eta_max              =   5.7964961235546E+00
(PID.TID 0000.0001) %MON dynstat_eta_min              =  -1.4195816083658E+01
(PID.TID 0000.0001) %MON dynstat_eta_mean             =  -2.5061669074688E+00
(PID.TID 0000.0001) %MON dynstat_eta_sd               =   4.9506595054872E+00
(PID.TID 0000.0001) %MON dynstat_eta_del2             =   2.0714577382450E-01
(PID.TID 0000.0001) %MON dynstat_uvel_max             =   3.0423819284415E-03
(PID.TID 0000.0001) %MON dynstat_uvel_min             =  -1.3603052446697E-02
(PID.TID 0000.0001) %MON dynstat_uvel_mean            =  -1.1774004450638E-07
(PID.TID 0000.0001) %MON dynstat_uvel_sd              =   4.0417888478641E-04
(PID.TID 0000.0001) %MON dynstat_uvel_del2            =   6.4174916756859E-07
(PID.TID 0000.0001) %MON dynstat_vvel_max             =   1.1019192123304E-02
(PID.TID 0000.0001) %MON dynstat_vvel_min             =  -5.1225680401412E-03
(PID.TID 0000.0001) %MON dynstat_vvel_mean            =   1.4910490808880E-05
(PID.TID 0000.0001) %MON dynstat_vvel_sd              =   2.7127158741916E-04
(PID.TID 0000.0001) %MON dynstat_vvel_del2            =   5.6115856339775E-07
(PID.TID 0000.0001) %MON dynstat_wvel_max             =   5.1142568392220E-04
(PID.TID 0000.0001) %MON dynstat_wvel_min             =  -5.1122770191577E-04
(PID.TID 0000.0001) %MON dynstat_wvel_mean            =   6.6291636846194E-09
(PID.TID 0000.0001) %MON dynstat_wvel_sd              =   1.5835867921393E-05
(PID.TID 0000.0001) %MON dynstat_wvel_del2            =   6.1038366641295E-08
(PID.TID 0000.0001) %MON dynstat_theta_max            =   1.2000000000000E+00
(PID.TID 0000.0001) %MON dynstat_theta_min            =  -1.0000000000000E+00
(PID.TID 0000.0001) %MON dynstat_theta_mean           =   5.6887859154534E-01
(PID.TID 0000.0001) %MON dynstat_theta_sd             =   8.6846289055025E-01
(PID.TID 0000.0001) %MON dynstat_theta_del2           =   1.7616756342501E-06
(PID.TID 0000.0001) %MON dynstat_salt_max             =   3.4700000000000E+01
(PID.TID 0000.0001) %MON dynstat_salt_min             =   3.4000000000000E+01
(PID.TID 0000.0001) %MON dynstat_salt_mean            =   3.4499165611592E+01
(PID.TID 0000.0001) %MON dynstat_salt_sd              =   2.7632128718225E-01
(PID.TID 0000.0001) %MON dynstat_salt_del2            =   6.8950968952757E-07
(PID.TID 0000.0001) %MON advcfl_uvel_max              =   1.3603052446697E-03
(PID.TID 0000.0001) %MON advcfl_vvel_max              =   1.1019192123304E-03
(PID.TID 0000.0001) %MON advcfl_wvel_max              =   2.5571284196110E-03
(PID.TID 0000.0001) %MON advcfl_W_hf_max              =   2.5571284196110E-03
(PID.TID 0000.0001) %MON pe_b_mean                    =  -8.3053994486872E-01
(PID.TID 0000.0001) %MON ke_max                       =   5.5449201225268E-05
(PID.TID 0000.0001) %MON ke_mean                      =   1.1696330086494E-07
(PID.TID 0000.0001) %MON ke_vol                       =   4.2724934381538E+12
(PID.TID 0000.0001) // =======================================================
(PID.TID 0000.0001) // End MONITOR dynamic field statistics
(PID.TID 0000.0001) // =======================================================
(PID.TID 0000.0001) // =======================================================
(PID.TID 0000.0001) // Begin OBCS MONITOR field statistics
(PID.TID 0000.0001) // =======================================================
(PID.TID 0000.0001) %MON obc_N_vVel_max               =   1.4673403057287E-05
(PID.TID 0000.0001) %MON obc_N_vVel_min               =   1.4673403057287E-05
(PID.TID 0000.0001) %MON obc_N_vVel_mean              =   1.4673403057287E-05
(PID.TID 0000.0001) %MON obc_N_vVel_sd                =   5.0842299458504E-13
(PID.TID 0000.0001) %MON obc_N_vVel_Int               =   9.6844460178095E+02
(PID.TID 0000.0001) // =======================================================
(PID.TID 0000.0001) // End OBCS MONITOR field statistics
(PID.TID 0000.0001) // =======================================================
 cg2d: Sum(rhs),rhsMax =   4.51234212102616E+00  2.99918848280139E+02
(PID.TID 0000.0001)      cg2d_init_res =   6.04567432271616E-06
(PID.TID 0000.0001)      cg2d_iters(min,last) =      -1      78
(PID.TID 0000.0001)      cg2d_last_res =   9.87272581524912E-12
(PID.TID 0000.0001) // =======================================================
(PID.TID 0000.0001) // Begin MONITOR dynamic field statistics
(PID.TID 0000.0001) // =======================================================
(PID.TID 0000.0001) %MON time_tsnumber                =                   849
(PID.TID 0000.0001) %MON time_secondsf                =   8.4900000000000E+04
(PID.TID 0000.0001) %MON dynstat_eta_max              =   5.7964889609827E+00
(PID.TID 0000.0001) %MON dynstat_eta_min              =  -1.4195839181979E+01
(PID.TID 0000.0001) %MON dynstat_eta_mean             =  -2.5061786147854E+00
(PID.TID 0000.0001) %MON dynstat_eta_sd               =   4.9506635278094E+00
(PID.TID 0000.0001) %MON dynstat_eta_del2             =   2.0714579280487E-01
(PID.TID 0000.0001) %MON dynstat_uvel_max             =   3.0508123471087E-03
(PID.TID 0000.0001) %MON dynstat_uvel_min             =  -1.3640670491526E-02
(PID.TID 0000.0001) %MON dynstat_uvel_mean            =  -1.1775698325586E-07
(PID.TID 0000.0001) %MON dynstat_uvel_sd              =   4.0523568459203E-04
(PID.TID 0000.0001) %MON dynstat_uvel_del2            =   6.4307321798558E-07
(PID.TID 0000.0001) %MON dynstat_vvel_max             =   1.1048275500408E-02
(PID.TID 0000.0001) %MON dynstat_vvel_min             =  -5.1327848449585E-03
(PID.TID 0000.0001) %MON dynstat_vvel_mean            =   1.4913200040185E-05
(PID.TID 0000.0001) %MON dynstat_vvel_sd              =   2.7189095589463E-04
(PID.TID 0000.0001) %MON dynstat_vvel_del2            =   5.6240922589460E-07
(PID.TID 0000.0001) %MON dynstat_wvel_max             =   5.1300320200413E-04
(PID.TID 0000.0001) %MON dynstat_wvel_min             =  -5.1268441710151E-04
(PID.TID 0000.0001) %MON dynstat_wvel_mean            =   6.6351040855102E-09
(PID.TID 0000.0001) %MON dynstat_wvel_sd              =   1.5900829166518E-05
(PID.TID 0000.0001) %MON dynstat_wvel_del2            =   6.1850441117663E-08
(PID.TID 0000.0001) %MON dynstat_theta_max            =   1.2000000000000E+00
(PID.TID 0000.0001) %MON dynstat_theta_min            =  -1.0000000000000E+00
(PID.TID 0000.0001) %MON dynstat_theta_mean           =   5.6887804314271E-01
(PID.TID 0000.0001) %MON dynstat_theta_sd             =   8.6846258959961E-01
(PID.TID 0000.0001) %MON dynstat_theta_del2           =   1.7647115368017E-06
(PID.TID 0000.0001) %MON dynstat_salt_max             =   3.4700000000000E+01
(PID.TID 0000.0001) %MON dynstat_salt_min             =   3.4000000000000E+01
(PID.TID 0000.0001) %MON dynstat_salt_mean            =   3.4499165392324E+01
(PID.TID 0000.0001) %MON dynstat_salt_sd              =   2.7632117231401E-01
(PID.TID 0000.0001) %MON dynstat_salt_del2            =   6.9078988979975E-07
(PID.TID 0000.0001) %MON advcfl_uvel_max              =   1.3640670491526E-03
(PID.TID 0000.0001) %MON advcfl_vvel_max              =   1.1048275500408E-03
(PID.TID 0000.0001) %MON advcfl_wvel_max              =   2.5650160100207E-03
(PID.TID 0000.0001) %MON advcfl_W_hf_max              =   2.5650160100207E-03
(PID.TID 0000.0001) %MON pe_b_mean                    =  -8.3054317274724E-01
(PID.TID 0000.0001) %MON ke_max                       =   5.5783450072366E-05
(PID.TID 0000.0001) %MON ke_mean                      =   1.1755075639219E-07
(PID.TID 0000.0001) %MON ke_vol                       =   4.2724933685696E+12
(PID.TID 0000.0001) // =======================================================
(PID.TID 0000.0001) // End MONITOR dynamic field statistics
(PID.TID 0000.0001) // =======================================================
(PID.TID 0000.0001) // =======================================================
(PID.TID 0000.0001) // Begin OBCS MONITOR field statistics
(PID.TID 0000.0001) // =======================================================
(PID.TID 0000.0001) %MON obc_N_vVel_max               =   1.4675703834502E-05
(PID.TID 0000.0001) %MON obc_N_vVel_min               =   1.4675703834501E-05
(PID.TID 0000.0001) %MON obc_N_vVel_mean              =   1.4675703834502E-05
(PID.TID 0000.0001) %MON obc_N_vVel_sd                =  -3.3604212384967E-24
(PID.TID 0000.0001) %MON obc_N_vVel_Int               =   9.6859645307710E+02
(PID.TID 0000.0001) // =======================================================
(PID.TID 0000.0001) // End OBCS MONITOR field statistics
(PID.TID 0000.0001) // =======================================================
 cg2d: Sum(rhs),rhsMax =   4.51236206037993E+00  2.99918923208748E+02
(PID.TID 0000.0001)      cg2d_init_res =   6.05778692321190E-06
(PID.TID 0000.0001)      cg2d_iters(min,last) =      -1      78
(PID.TID 0000.0001)      cg2d_last_res =   9.88993007646618E-12
(PID.TID 0000.0001) // =======================================================
(PID.TID 0000.0001) // Begin MONITOR dynamic field statistics
(PID.TID 0000.0001) // =======================================================
(PID.TID 0000.0001) %MON time_tsnumber                =                   850
(PID.TID 0000.0001) %MON time_secondsf                =   8.5000000000000E+04
(PID.TID 0000.0001) %MON dynstat_eta_max              =   5.7964818218876E+00
(PID.TID 0000.0001) %MON dynstat_eta_min              =  -1.4195862269662E+01
(PID.TID 0000.0001) %MON dynstat_eta_mean             =  -2.5061903153281E+00
(PID.TID 0000.0001) %MON dynstat_eta_sd               =   4.9506675489172E+00
(PID.TID 0000.0001) %MON dynstat_eta_del2             =   2.0714581183477E-01
(PID.TID 0000.0001) %MON dynstat_uvel_max             =   3.0592618328171E-03
(PID.TID 0000.0001) %MON dynstat_uvel_min             =  -1.3678363803010E-02
(PID.TID 0000.0001) %MON dynstat_uvel_mean            =  -1.1777429604699E-07
(PID.TID 0000.0001) %MON dynstat_uvel_sd              =   4.0629577144643E-04
(PID.TID 0000.0001) %MON dynstat_uvel_del2            =   6.4440143852629E-07
(PID.TID 0000.0001) %MON dynstat_vvel_max             =   1.1077412716263E-02
(PID.TID 0000.0001) %MON dynstat_vvel_min             =  -5.1430126091558E-03
(PID.TID 0000.0001) %MON dynstat_vvel_mean            =   1.4916358342937E-05
(PID.TID 0000.0001) %MON dynstat_vvel_sd              =   2.7251207137763E-04
(PID.TID 0000.0001) %MON dynstat_vvel_del2            =   5.6363443432289E-07
(PID.TID 0000.0001) %MON dynstat_wvel_max             =   5.1458442434695E-04
(PID.TID 0000.0001) %MON dynstat_wvel_min             =  -5.1414483495450E-04
(PID.TID 0000.0001) %MON dynstat_wvel_mean            =   6.6416468731503E-09
(PID.TID 0000.0001) %MON dynstat_wvel_sd              =   1.5958109192349E-05
(PID.TID 0000.0001) %MON dynstat_wvel_del2            =   6.2576374671131E-08
(PID.TID 0000.0001) %MON dynstat_theta_max            =   1.2000000000000E+00
(PID.TID 0000.0001) %MON dynstat_theta_min            =  -1.0000000000000E+00
(PID.TID 0000.0001) %MON dynstat_theta_mean           =   5.6887749361497E-01
(PID.TID 0000.0001) %MON dynstat_theta_sd             =   8.6846228801036E-01
(PID.TID 0000.0001) %MON dynstat_theta_del2           =   1.7677738523560E-06
(PID.TID 0000.0001) %MON dynstat_salt_max             =   3.4700000000000E+01
(PID.TID 0000.0001) %MON dynstat_salt_min             =   3.4000000000000E+01
(PID.TID 0000.0001) %MON dynstat_salt_mean            =   3.4499165172602E+01
(PID.TID 0000.0001) %MON dynstat_salt_sd              =   2.7632105719706E-01
(PID.TID 0000.0001) %MON dynstat_salt_del2            =   6.9207804992957E-07
(PID.TID 0000.0001) %MON advcfl_uvel_max              =   1.3678363803010E-03
(PID.TID 0000.0001) %MON advcfl_vvel_max              =   1.1077412716263E-03
(PID.TID 0000.0001) %MON advcfl_wvel_max              =   2.5729221217348E-03
(PID.TID 0000.0001) %MON advcfl_W_hf_max              =   2.5729221217348E-03
(PID.TID 0000.0001) %MON pe_b_mean                    =  -8.3054639812899E-01
(PID.TID 0000.0001) %MON ke_max                       =   5.6119519475465E-05
(PID.TID 0000.0001) %MON ke_mean                      =   1.1814148195019E-07
(PID.TID 0000.0001) %MON ke_vol                       =   4.2724932990282E+12
(PID.TID 0000.0001) // =======================================================
(PID.TID 0000.0001) // End MONITOR dynamic field statistics
(PID.TID 0000.0001) // =======================================================
(PID.TID 0000.0001) // =======================================================
(PID.TID 0000.0001) // Begin OBCS MONITOR field statistics
(PID.TID 0000.0001) // =======================================================
(PID.TID 0000.0001) %MON obc_N_vVel_max               =   1.4678405339139E-05
(PID.TID 0000.0001) %MON obc_N_vVel_min               =   1.4678405339139E-05
(PID.TID 0000.0001) %MON obc_N_vVel_mean              =   1.4678405339139E-05
(PID.TID 0000.0001) %MON obc_N_vVel_sd                =  -1.4475660719678E-23
(PID.TID 0000.0001) %MON obc_N_vVel_Int               =   9.6877475238320E+02
(PID.TID 0000.0001) // =======================================================
(PID.TID 0000.0001) // End OBCS MONITOR field statistics
(PID.TID 0000.0001) // =======================================================
 cg2d: Sum(rhs),rhsMax =   4.51238198601418E+00  2.99918998290354E+02
(PID.TID 0000.0001)      cg2d_init_res =   6.06932171955218E-06
(PID.TID 0000.0001)      cg2d_iters(min,last) =      -1      78
(PID.TID 0000.0001)      cg2d_last_res =   9.90721901190137E-12
(PID.TID 0000.0001) // =======================================================
(PID.TID 0000.0001) // Begin MONITOR dynamic field statistics
(PID.TID 0000.0001) // =======================================================
(PID.TID 0000.0001) %MON time_tsnumber                =                   851
(PID.TID 0000.0001) %MON time_secondsf                =   8.5100000000000E+04
(PID.TID 0000.0001) %MON dynstat_eta_max              =   5.7964747055483E+00
(PID.TID 0000.0001) %MON dynstat_eta_min              =  -1.4195885347568E+01
(PID.TID 0000.0001) %MON dynstat_eta_mean             =  -2.5062020095348E+00
(PID.TID 0000.0001) %MON dynstat_eta_sd               =   4.9506715689689E+00
(PID.TID 0000.0001) %MON dynstat_eta_del2             =   2.0714583091443E-01
(PID.TID 0000.0001) %MON dynstat_uvel_max             =   3.0677304144717E-03
(PID.TID 0000.0001) %MON dynstat_uvel_min             =  -1.3716132348534E-02
(PID.TID 0000.0001) %MON dynstat_uvel_mean            =  -1.1779186740836E-07
(PID.TID 0000.0001) %MON dynstat_uvel_sd              =   4.0735914370032E-04
(PID.TID 0000.0001) %MON dynstat_uvel_del2            =   6.4573382890008E-07
(PID.TID 0000.0001) %MON dynstat_vvel_max             =   1.1106603791437E-02
(PID.TID 0000.0001) %MON dynstat_vvel_min             =  -5.1532513575019E-03
(PID.TID 0000.0001) %MON dynstat_vvel_mean            =   1.4919984751397E-05
(PID.TID 0000.0001) %MON dynstat_vvel_sd              =   2.7313390269526E-04
(PID.TID 0000.0001) %MON dynstat_vvel_del2            =   5.6481322034224E-07
(PID.TID 0000.0001) %MON dynstat_wvel_max             =   5.1616935655091E-04
(PID.TID 0000.0001) %MON dynstat_wvel_min             =  -5.1560896079974E-04
(PID.TID 0000.0001) %MON dynstat_wvel_mean            =   6.6487998136898E-09
(PID.TID 0000.0001) %MON dynstat_wvel_sd              =   1.6001426659744E-05
(PID.TID 0000.0001) %MON dynstat_wvel_del2            =   6.3150257660519E-08
(PID.TID 0000.0001) %MON dynstat_theta_max            =   1.2000000000000E+00
(PID.TID 0000.0001) %MON dynstat_theta_min            =  -1.0000000000000E+00
(PID.TID 0000.0001) %MON dynstat_theta_mean           =   5.6887694296830E-01
(PID.TID 0000.0001) %MON dynstat_theta_sd             =   8.6846198578272E-01
(PID.TID 0000.0001) %MON dynstat_theta_del2           =   1.7708845530322E-06
(PID.TID 0000.0001) %MON dynstat_salt_max             =   3.4700000000000E+01
(PID.TID 0000.0001) %MON dynstat_salt_min             =   3.4000000000000E+01
(PID.TID 0000.0001) %MON dynstat_salt_mean            =   3.4499164952427E+01
(PID.TID 0000.0001) %MON dynstat_salt_sd              =   2.7632094183150E-01
(PID.TID 0000.0001) %MON dynstat_salt_del2            =   6.9337984711785E-07
(PID.TID 0000.0001) %MON advcfl_uvel_max              =   1.3716132348534E-03
(PID.TID 0000.0001) %MON advcfl_vvel_max              =   1.1106603791437E-03
(PID.TID 0000.0001) %MON advcfl_wvel_max              =   2.5808467827545E-03
(PID.TID 0000.0001) %MON advcfl_W_hf_max              =   2.5808467827545E-03
(PID.TID 0000.0001) %MON pe_b_mean                    =  -8.3054962112641E-01
(PID.TID 0000.0001) %MON ke_max                       =   5.6457417325319E-05
(PID.TID 0000.0001) %MON ke_mean                      =   1.1873520904407E-07
(PID.TID 0000.0001) %MON ke_vol                       =   4.2724932295270E+12
(PID.TID 0000.0001) // =======================================================
(PID.TID 0000.0001) // End MONITOR dynamic field statistics
(PID.TID 0000.0001) // =======================================================
(PID.TID 0000.0001) // =======================================================
(PID.TID 0000.0001) // Begin OBCS MONITOR field statistics
(PID.TID 0000.0001) // =======================================================
(PID.TID 0000.0001) %MON obc_N_vVel_max               =   1.4681525631497E-05
(PID.TID 0000.0001) %MON obc_N_vVel_min               =   1.4681525631497E-05
(PID.TID 0000.0001) %MON obc_N_vVel_mean              =   1.4681525631497E-05
(PID.TID 0000.0001) %MON obc_N_vVel_sd                =   2.8353415276206E-12
(PID.TID 0000.0001) %MON obc_N_vVel_Int               =   9.6898069167879E+02
(PID.TID 0000.0001) // =======================================================
(PID.TID 0000.0001) // End OBCS MONITOR field statistics
(PID.TID 0000.0001) // =======================================================
 cg2d: Sum(rhs),rhsMax =   4.51240189858428E+00  2.99919073535831E+02
(PID.TID 0000.0001)      cg2d_init_res =   6.07971966625235E-06
(PID.TID 0000.0001)      cg2d_iters(min,last) =      -1      78
(PID.TID 0000.0001)      cg2d_last_res =   9.92446029113857E-12
(PID.TID 0000.0001) // =======================================================
(PID.TID 0000.0001) // Begin MONITOR dynamic field statistics
(PID.TID 0000.0001) // =======================================================
(PID.TID 0000.0001) %MON time_tsnumber                =                   852
(PID.TID 0000.0001) %MON time_secondsf                =   8.5200000000000E+04
(PID.TID 0000.0001) %MON dynstat_eta_max              =   5.7964676112110E+00
(PID.TID 0000.0001) %MON dynstat_eta_min              =  -1.4195908416599E+01
(PID.TID 0000.0001) %MON dynstat_eta_mean             =  -2.5062136978606E+00
(PID.TID 0000.0001) %MON dynstat_eta_sd               =   4.9506755881276E+00
(PID.TID 0000.0001) %MON dynstat_eta_del2             =   2.0714585004401E-01
(PID.TID 0000.0001) %MON dynstat_uvel_max             =   3.0762181209560E-03
(PID.TID 0000.0001) %MON dynstat_uvel_min             =  -1.3753976094790E-02
(PID.TID 0000.0001) %MON dynstat_uvel_mean            =  -1.1780957392598E-07
(PID.TID 0000.0001) %MON dynstat_uvel_sd              =   4.0842579909083E-04
(PID.TID 0000.0001) %MON dynstat_uvel_del2            =   6.4707037832522E-07
(PID.TID 0000.0001) %MON dynstat_vvel_max             =   1.1135848745559E-02
(PID.TID 0000.0001) %MON dynstat_vvel_min             =  -5.1635011148203E-03
(PID.TID 0000.0001) %MON dynstat_vvel_mean            =   1.4924096387703E-05
(PID.TID 0000.0001) %MON dynstat_vvel_sd              =   2.7375567503342E-04
(PID.TID 0000.0001) %MON dynstat_vvel_del2            =   5.6592977663959E-07
(PID.TID 0000.0001) %MON dynstat_wvel_max             =   5.1775800416365E-04
(PID.TID 0000.0001) %MON dynstat_wvel_min             =  -5.1707679995059E-04
(PID.TID 0000.0001) %MON dynstat_wvel_mean            =   6.6565666384463E-09
(PID.TID 0000.0001) %MON dynstat_wvel_sd              =   1.6026032693187E-05
(PID.TID 0000.0001) %MON dynstat_wvel_del2            =   6.3522883550581E-08
(PID.TID 0000.0001) %MON dynstat_theta_max            =   1.2000000000000E+00
(PID.TID 0000.0001) %MON dynstat_theta_min            =  -1.0000000000000E+00
(PID.TID 0000.0001) %MON dynstat_theta_mean           =   5.6887639120736E-01
(PID.TID 0000.0001) %MON dynstat_theta_sd             =   8.6846168291828E-01
(PID.TID 0000.0001) %MON dynstat_theta_del2           =   1.7740603073112E-06
(PID.TID 0000.0001) %MON dynstat_salt_max             =   3.4700000000000E+01
(PID.TID 0000.0001) %MON dynstat_salt_min             =   3.4000000000000E+01
(PID.TID 0000.0001) %MON dynstat_salt_mean            =   3.4499164731801E+01
(PID.TID 0000.0001) %MON dynstat_salt_sd              =   2.7632082621750E-01
(PID.TID 0000.0001) %MON dynstat_salt_del2            =   6.9469961311145E-07
(PID.TID 0000.0001) %MON advcfl_uvel_max              =   1.3753976094790E-03
(PID.TID 0000.0001) %MON advcfl_vvel_max              =   1.1135848745559E-03
(PID.TID 0000.0001) %MON advcfl_wvel_max              =   2.5887900208182E-03
(PID.TID 0000.0001) %MON advcfl_W_hf_max              =   2.5887900208182E-03
(PID.TID 0000.0001) %MON pe_b_mean                    =  -8.3055284185576E-01
(PID.TID 0000.0001) %MON ke_max                       =   5.6797151531077E-05
(PID.TID 0000.0001) %MON ke_mean                      =   1.1933173654353E-07
(PID.TID 0000.0001) %MON ke_vol                       =   4.2724931600634E+12
(PID.TID 0000.0001) // =======================================================
(PID.TID 0000.0001) // End MONITOR dynamic field statistics
(PID.TID 0000.0001) // =======================================================
(PID.TID 0000.0001) // =======================================================
(PID.TID 0000.0001) // Begin OBCS MONITOR field statistics
(PID.TID 0000.0001) // =======================================================
(PID.TID 0000.0001) %MON obc_N_vVel_max               =   1.4685081224721E-05
(PID.TID 0000.0001) %MON obc_N_vVel_min               =   1.4685081224721E-05
(PID.TID 0000.0001) %MON obc_N_vVel_mean              =   1.4685081224721E-05
(PID.TID 0000.0001) %MON obc_N_vVel_sd                =   3.6344243569933E-12
(PID.TID 0000.0001) %MON obc_N_vVel_Int               =   9.6921536083158E+02
(PID.TID 0000.0001) // =======================================================
(PID.TID 0000.0001) // End OBCS MONITOR field statistics
(PID.TID 0000.0001) // =======================================================
 cg2d: Sum(rhs),rhsMax =   4.51242179877747E+00  2.99919148955894E+02
(PID.TID 0000.0001)      cg2d_init_res =   6.08858059640498E-06
(PID.TID 0000.0001)      cg2d_iters(min,last) =      -1      78
(PID.TID 0000.0001)      cg2d_last_res =   9.94154003986130E-12
(PID.TID 0000.0001) // =======================================================
(PID.TID 0000.0001) // Begin MONITOR dynamic field statistics
(PID.TID 0000.0001) // =======================================================
(PID.TID 0000.0001) %MON time_tsnumber                =                   853
(PID.TID 0000.0001) %MON time_secondsf                =   8.5300000000000E+04
(PID.TID 0000.0001) %MON dynstat_eta_max              =   5.7964605380980E+00
(PID.TID 0000.0001) %MON dynstat_eta_min              =  -1.4195931477674E+01
(PID.TID 0000.0001) %MON dynstat_eta_mean             =  -2.5062253807766E+00
(PID.TID 0000.0001) %MON dynstat_eta_sd               =   4.9506796065595E+00
(PID.TID 0000.0001) %MON dynstat_eta_del2             =   2.0714586922374E-01
(PID.TID 0000.0001) %MON dynstat_uvel_max             =   3.0847249814059E-03
(PID.TID 0000.0001) %MON dynstat_uvel_min             =  -1.3791895007405E-02
(PID.TID 0000.0001) %MON dynstat_uvel_mean            =  -1.1782729008605E-07
(PID.TID 0000.0001) %MON dynstat_uvel_sd              =   4.0949573483824E-04
(PID.TID 0000.0001) %MON dynstat_uvel_del2            =   6.4841106541595E-07
(PID.TID 0000.0001) %MON dynstat_vvel_max             =   1.1165147597668E-02
(PID.TID 0000.0001) %MON dynstat_vvel_min             =  -5.1737619061836E-03
(PID.TID 0000.0001) %MON dynstat_vvel_mean            =   1.4928708298837E-05
(PID.TID 0000.0001) %MON dynstat_vvel_sd              =   2.7437694537590E-04
(PID.TID 0000.0001) %MON dynstat_vvel_del2            =   5.6697483592322E-07
(PID.TID 0000.0001) %MON dynstat_wvel_max             =   5.1935037273696E-04
(PID.TID 0000.0001) %MON dynstat_wvel_min             =  -5.1854835764117E-04
(PID.TID 0000.0001) %MON dynstat_wvel_mean            =   6.6649476295756E-09
(PID.TID 0000.0001) %MON dynstat_wvel_sd              =   1.6029094837367E-05
(PID.TID 0000.0001) %MON dynstat_wvel_del2            =   6.3664567379963E-08
(PID.TID 0000.0001) %MON dynstat_theta_max            =   1.2000000000000E+00
(PID.TID 0000.0001) %MON dynstat_theta_min            =  -1.0000000000000E+00
(PID.TID 0000.0001) %MON dynstat_theta_mean           =   5.6887583833523E-01
(PID.TID 0000.0001) %MON dynstat_theta_sd             =   8.6846137940811E-01
(PID.TID 0000.0001) %MON dynstat_theta_del2           =   1.7773110507296E-06
(PID.TID 0000.0001) %MON dynstat_salt_max             =   3.4700000000000E+01
(PID.TID 0000.0001) %MON dynstat_salt_min             =   3.4000000000000E+01
(PID.TID 0000.0001) %MON dynstat_salt_mean            =   3.4499164510724E+01
(PID.TID 0000.0001) %MON dynstat_salt_sd              =   2.7632071035232E-01
(PID.TID 0000.0001) %MON dynstat_salt_del2            =   6.9603983656170E-07
(PID.TID 0000.0001) %MON advcfl_uvel_max              =   1.3791895007405E-03
(PID.TID 0000.0001) %MON advcfl_vvel_max              =   1.1165147597668E-03
(PID.TID 0000.0001) %MON advcfl_wvel_max              =   2.5967518636848E-03
(PID.TID 0000.0001) %MON advcfl_W_hf_max              =   2.5967518636848E-03
(PID.TID 0000.0001) %MON pe_b_mean                    =  -8.3055606043683E-01
(PID.TID 0000.0001) %MON ke_max                       =   5.7138730019440E-05
(PID.TID 0000.0001) %MON ke_mean                      =   1.1993095220654E-07
(PID.TID 0000.0001) %MON ke_vol                       =   4.2724930906347E+12
(PID.TID 0000.0001) // =======================================================
(PID.TID 0000.0001) // End MONITOR dynamic field statistics
(PID.TID 0000.0001) // =======================================================
(PID.TID 0000.0001) // =======================================================
(PID.TID 0000.0001) // Begin OBCS MONITOR field statistics
(PID.TID 0000.0001) // =======================================================
(PID.TID 0000.0001) %MON obc_N_vVel_max               =   1.4689086882496E-05
(PID.TID 0000.0001) %MON obc_N_vVel_min               =   1.4689086882495E-05
(PID.TID 0000.0001) %MON obc_N_vVel_mean              =   1.4689086882495E-05
(PID.TID 0000.0001) %MON obc_N_vVel_sd                =   8.0388733884609E-13
(PID.TID 0000.0001) %MON obc_N_vVel_Int               =   9.6947973424470E+02
(PID.TID 0000.0001) // =======================================================
(PID.TID 0000.0001) // End OBCS MONITOR field statistics
(PID.TID 0000.0001) // =======================================================
 cg2d: Sum(rhs),rhsMax =   4.51244168730776E+00  2.99919224561186E+02
(PID.TID 0000.0001)      cg2d_init_res =   6.09567888775550E-06
(PID.TID 0000.0001)      cg2d_iters(min,last) =      -1      78
(PID.TID 0000.0001)      cg2d_last_res =   9.95849732563817E-12
(PID.TID 0000.0001) // =======================================================
(PID.TID 0000.0001) // Begin MONITOR dynamic field statistics
(PID.TID 0000.0001) // =======================================================
(PID.TID 0000.0001) %MON time_tsnumber                =                   854
(PID.TID 0000.0001) %MON time_secondsf                =   8.5400000000000E+04
(PID.TID 0000.0001) %MON dynstat_eta_max              =   5.7964534854162E+00
(PID.TID 0000.0001) %MON dynstat_eta_min              =  -1.4195954531742E+01
(PID.TID 0000.0001) %MON dynstat_eta_mean             =  -2.5062370587684E+00
(PID.TID 0000.0001) %MON dynstat_eta_sd               =   4.9506836244341E+00
(PID.TID 0000.0001) %MON dynstat_eta_del2             =   2.0714588845373E-01
(PID.TID 0000.0001) %MON dynstat_uvel_max             =   3.0932510250423E-03
(PID.TID 0000.0001) %MON dynstat_uvel_min             =  -1.3829889051117E-02
(PID.TID 0000.0001) %MON dynstat_uvel_mean            =  -1.1784487535250E-07
(PID.TID 0000.0001) %MON dynstat_uvel_sd              =   4.1056894777622E-04
(PID.TID 0000.0001) %MON dynstat_uvel_del2            =   6.4975585905437E-07
(PID.TID 0000.0001) %MON dynstat_vvel_max             =   1.1194500365961E-02
(PID.TID 0000.0001) %MON dynstat_vvel_min             =  -5.1840337566400E-03
(PID.TID 0000.0001) %MON dynstat_vvel_mean            =   1.4933833338698E-05
(PID.TID 0000.0001) %MON dynstat_vvel_sd              =   2.7499764367834E-04
(PID.TID 0000.0001) %MON dynstat_vvel_del2            =   5.6794639798860E-07
(PID.TID 0000.0001) %MON dynstat_wvel_max             =   5.2094646779353E-04
(PID.TID 0000.0001) %MON dynstat_wvel_min             =  -5.2002363903846E-04
(PID.TID 0000.0001) %MON dynstat_wvel_mean            =   6.6739393826179E-09
(PID.TID 0000.0001) %MON dynstat_wvel_sd              =   1.6009904945805E-05
(PID.TID 0000.0001) %MON dynstat_wvel_del2            =   6.3566479965563E-08
(PID.TID 0000.0001) %MON dynstat_theta_max            =   1.2000000000000E+00
(PID.TID 0000.0001) %MON dynstat_theta_min            =  -1.0000000000000E+00
(PID.TID 0000.0001) %MON dynstat_theta_mean           =   5.6887528435333E-01
(PID.TID 0000.0001) %MON dynstat_theta_sd             =   8.6846107524233E-01
(PID.TID 0000.0001) %MON dynstat_theta_del2           =   1.7806395730627E-06
(PID.TID 0000.0001) %MON dynstat_salt_max             =   3.4700000000000E+01
(PID.TID 0000.0001) %MON dynstat_salt_min             =   3.4000000000000E+01
(PID.TID 0000.0001) %MON dynstat_salt_mean            =   3.4499164289197E+01
(PID.TID 0000.0001) %MON dynstat_salt_sd              =   2.7632059423267E-01
(PID.TID 0000.0001) %MON dynstat_salt_del2            =   6.9740122634373E-07
(PID.TID 0000.0001) %MON advcfl_uvel_max              =   1.3829889051117E-03
(PID.TID 0000.0001) %MON advcfl_vvel_max              =   1.1194500365961E-03
(PID.TID 0000.0001) %MON advcfl_wvel_max              =   2.6047323389677E-03
(PID.TID 0000.0001) %MON advcfl_W_hf_max              =   2.6047323389677E-03
(PID.TID 0000.0001) %MON pe_b_mean                    =  -8.3055927699275E-01
(PID.TID 0000.0001) %MON ke_max                       =   5.7482160735555E-05
(PID.TID 0000.0001) %MON ke_mean                      =   1.2053284508086E-07
(PID.TID 0000.0001) %MON ke_vol                       =   4.2724930212382E+12
(PID.TID 0000.0001) // =======================================================
(PID.TID 0000.0001) // End MONITOR dynamic field statistics
(PID.TID 0000.0001) // =======================================================
(PID.TID 0000.0001) // =======================================================
(PID.TID 0000.0001) // Begin OBCS MONITOR field statistics
(PID.TID 0000.0001) // =======================================================
(PID.TID 0000.0001) %MON obc_N_vVel_max               =   1.4693555538281E-05
(PID.TID 0000.0001) %MON obc_N_vVel_min               =   1.4693555538281E-05
(PID.TID 0000.0001) %MON obc_N_vVel_mean              =   1.4693555538281E-05
(PID.TID 0000.0001) %MON obc_N_vVel_sd                =  -1.6414365280349E-23
(PID.TID 0000.0001) %MON obc_N_vVel_Int               =   9.6977466552654E+02
(PID.TID 0000.0001) // =======================================================
(PID.TID 0000.0001) // End OBCS MONITOR field statistics
(PID.TID 0000.0001) // =======================================================
 cg2d: Sum(rhs),rhsMax =   4.51246156491381E+00  2.99919300362261E+02
(PID.TID 0000.0001)      cg2d_init_res =   6.10100489283363E-06
(PID.TID 0000.0001)      cg2d_iters(min,last) =      -1      78
(PID.TID 0000.0001)      cg2d_last_res =   9.97558232835123E-12
(PID.TID 0000.0001) // =======================================================
(PID.TID 0000.0001) // Begin MONITOR dynamic field statistics
(PID.TID 0000.0001) // =======================================================
(PID.TID 0000.0001) %MON time_tsnumber                =                   855
(PID.TID 0000.0001) %MON time_secondsf                =   8.5500000000000E+04
(PID.TID 0000.0001) %MON dynstat_eta_max              =   5.7964464523426E+00
(PID.TID 0000.0001) %MON dynstat_eta_min              =  -1.4195977579768E+01
(PID.TID 0000.0001) %MON dynstat_eta_mean             =  -2.5062487323343E+00
(PID.TID 0000.0001) %MON dynstat_eta_sd               =   4.9506876419215E+00
(PID.TID 0000.0001) %MON dynstat_eta_del2             =   2.0714590773407E-01
(PID.TID 0000.0001) %MON dynstat_uvel_max             =   3.1017962812285E-03
(PID.TID 0000.0001) %MON dynstat_uvel_min             =  -1.3867958189913E-02
(PID.TID 0000.0001) %MON dynstat_uvel_mean            =  -1.1786218583353E-07
(PID.TID 0000.0001) %MON dynstat_uvel_sd              =   4.1164543449702E-04
(PID.TID 0000.0001) %MON dynstat_uvel_del2            =   6.5110471965716E-07
(PID.TID 0000.0001) %MON dynstat_vvel_max             =   1.1223907067769E-02
(PID.TID 0000.0001) %MON dynstat_vvel_min             =  -5.1943166915667E-03
(PID.TID 0000.0001) %MON dynstat_vvel_mean            =   1.4939482076899E-05
(PID.TID 0000.0001) %MON dynstat_vvel_sd              =   2.7561807646074E-04
(PID.TID 0000.0001) %MON dynstat_vvel_del2            =   5.6884975693091E-07
(PID.TID 0000.0001) %MON dynstat_wvel_max             =   5.2254629483713E-04
(PID.TID 0000.0001) %MON dynstat_wvel_min             =  -5.2150264924896E-04
(PID.TID 0000.0001) %MON dynstat_wvel_mean            =   6.6835348967784E-09
(PID.TID 0000.0001) %MON dynstat_wvel_sd              =   1.5969908681603E-05
(PID.TID 0000.0001) %MON dynstat_wvel_del2            =   6.3240719705796E-08
(PID.TID 0000.0001) %MON dynstat_theta_max            =   1.2000000000000E+00
(PID.TID 0000.0001) %MON dynstat_theta_min            =  -1.0000000000000E+00
(PID.TID 0000.0001) %MON dynstat_theta_mean           =   5.6887472926143E-01
(PID.TID 0000.0001) %MON dynstat_theta_sd             =   8.6846077042086E-01
(PID.TID 0000.0001) %MON dynstat_theta_del2           =   1.7840415572689E-06
(PID.TID 0000.0001) %MON dynstat_salt_max             =   3.4700000000000E+01
(PID.TID 0000.0001) %MON dynstat_salt_min             =   3.4000000000000E+01
(PID.TID 0000.0001) %MON dynstat_salt_mean            =   3.4499164067219E+01
(PID.TID 0000.0001) %MON dynstat_salt_sd              =   2.7632047785827E-01
(PID.TID 0000.0001) %MON dynstat_salt_del2            =   6.9878264699094E-07
(PID.TID 0000.0001) %MON advcfl_uvel_max              =   1.3867958189913E-03
(PID.TID 0000.0001) %MON advcfl_vvel_max              =   1.1223907067769E-03
(PID.TID 0000.0001) %MON advcfl_wvel_max              =   2.6127314741857E-03
(PID.TID 0000.0001) %MON advcfl_W_hf_max              =   2.6127314741857E-03
(PID.TID 0000.0001) %MON pe_b_mean                    =  -8.3056249164909E-01
(PID.TID 0000.0001) %MON ke_max                       =   5.7827451643479E-05
(PID.TID 0000.0001) %MON ke_mean                      =   1.2113750770820E-07
(PID.TID 0000.0001) %MON ke_vol                       =   4.2724929518709E+12
(PID.TID 0000.0001) // =======================================================
(PID.TID 0000.0001) // End MONITOR dynamic field statistics
(PID.TID 0000.0001) // =======================================================
(PID.TID 0000.0001) // =======================================================
(PID.TID 0000.0001) // Begin OBCS MONITOR field statistics
(PID.TID 0000.0001) // =======================================================
(PID.TID 0000.0001) %MON obc_N_vVel_max               =   1.4698498133341E-05
(PID.TID 0000.0001) %MON obc_N_vVel_min               =   1.4698498133341E-05
(PID.TID 0000.0001) %MON obc_N_vVel_mean              =   1.4698498133341E-05
(PID.TID 0000.0001) %MON obc_N_vVel_sd                =  -1.2071667064446E-23
(PID.TID 0000.0001) %MON obc_N_vVel_Int               =   9.7010087680051E+02
(PID.TID 0000.0001) // =======================================================
(PID.TID 0000.0001) // End OBCS MONITOR field statistics
(PID.TID 0000.0001) // =======================================================
 cg2d: Sum(rhs),rhsMax =   4.51248143235635E+00  2.99919376369509E+02
(PID.TID 0000.0001)      cg2d_init_res =   6.10473665475570E-06
(PID.TID 0000.0001)      cg2d_iters(min,last) =      -1      78
(PID.TID 0000.0001)      cg2d_last_res =   9.99298885441653E-12
(PID.TID 0000.0001) // =======================================================
(PID.TID 0000.0001) // Begin MONITOR dynamic field statistics
(PID.TID 0000.0001) // =======================================================
(PID.TID 0000.0001) %MON time_tsnumber                =                   856
(PID.TID 0000.0001) %MON time_secondsf                =   8.5600000000000E+04
(PID.TID 0000.0001) %MON dynstat_eta_max              =   5.7964394380500E+00
(PID.TID 0000.0001) %MON dynstat_eta_min              =  -1.4196000622739E+01
(PID.TID 0000.0001) %MON dynstat_eta_mean             =  -2.5062604019839E+00
(PID.TID 0000.0001) %MON dynstat_eta_sd               =   4.9506916591965E+00
(PID.TID 0000.0001) %MON dynstat_eta_del2             =   2.0714592706499E-01
(PID.TID 0000.0001) %MON dynstat_uvel_max             =   3.1103607795799E-03
(PID.TID 0000.0001) %MON dynstat_uvel_min             =  -1.3906102386763E-02
(PID.TID 0000.0001) %MON dynstat_uvel_mean            =  -1.1787907428539E-07
(PID.TID 0000.0001) %MON dynstat_uvel_sd              =   4.1272519152761E-04
(PID.TID 0000.0001) %MON dynstat_uvel_del2            =   6.5245760111770E-07
(PID.TID 0000.0001) %MON dynstat_vvel_max             =   1.1253367719629E-02
(PID.TID 0000.0001) %MON dynstat_vvel_min             =  -5.2046107363921E-03
(PID.TID 0000.0001) %MON dynstat_vvel_mean            =   1.4945662755183E-05
(PID.TID 0000.0001) %MON dynstat_vvel_sd              =   2.7623889318518E-04
(PID.TID 0000.0001) %MON dynstat_vvel_del2            =   5.6969683775896E-07
(PID.TID 0000.0001) %MON dynstat_wvel_max             =   5.2414985933228E-04
(PID.TID 0000.0001) %MON dynstat_wvel_min             =  -5.2298539330562E-04
(PID.TID 0000.0001) %MON dynstat_wvel_mean            =   6.6937243346310E-09
(PID.TID 0000.0001) %MON dynstat_wvel_sd              =   1.5912560520178E-05
(PID.TID 0000.0001) %MON dynstat_wvel_del2            =   6.2719220623159E-08
(PID.TID 0000.0001) %MON dynstat_theta_max            =   1.2000000000000E+00
(PID.TID 0000.0001) %MON dynstat_theta_min            =  -1.0000000000000E+00
(PID.TID 0000.0001) %MON dynstat_theta_mean           =   5.6887417305765E-01
(PID.TID 0000.0001) %MON dynstat_theta_sd             =   8.6846046495103E-01
(PID.TID 0000.0001) %MON dynstat_theta_del2           =   1.7875063657711E-06
(PID.TID 0000.0001) %MON dynstat_salt_max             =   3.4700000000000E+01
(PID.TID 0000.0001) %MON dynstat_salt_min             =   3.4000000000000E+01
(PID.TID 0000.0001) %MON dynstat_salt_mean            =   3.4499163844789E+01
(PID.TID 0000.0001) %MON dynstat_salt_sd              =   2.7632036123162E-01
(PID.TID 0000.0001) %MON dynstat_salt_del2            =   7.0018131732059E-07
(PID.TID 0000.0001) %MON advcfl_uvel_max              =   1.3906102386763E-03
(PID.TID 0000.0001) %MON advcfl_vvel_max              =   1.1253367719629E-03
(PID.TID 0000.0001) %MON advcfl_wvel_max              =   2.6207492966614E-03
(PID.TID 0000.0001) %MON advcfl_W_hf_max              =   2.6207492966614E-03
(PID.TID 0000.0001) %MON pe_b_mean                    =  -8.3056570453385E-01
(PID.TID 0000.0001) %MON ke_max                       =   5.8174610725173E-05
(PID.TID 0000.0001) %MON ke_mean                      =   1.2174512807419E-07
(PID.TID 0000.0001) %MON ke_vol                       =   4.2724928825299E+12
(PID.TID 0000.0001) // =======================================================
(PID.TID 0000.0001) // End MONITOR dynamic field statistics
(PID.TID 0000.0001) // =======================================================
(PID.TID 0000.0001) // =======================================================
(PID.TID 0000.0001) // Begin OBCS MONITOR field statistics
(PID.TID 0000.0001) // =======================================================
(PID.TID 0000.0001) %MON obc_N_vVel_max               =   1.4703923542431E-05
(PID.TID 0000.0001) %MON obc_N_vVel_min               =   1.4703923542431E-05
(PID.TID 0000.0001) %MON obc_N_vVel_mean              =   1.4703923542431E-05
(PID.TID 0000.0001) %MON obc_N_vVel_sd                =   3.3145124091591E-12
(PID.TID 0000.0001) %MON obc_N_vVel_Int               =   9.7045895380044E+02
(PID.TID 0000.0001) // =======================================================
(PID.TID 0000.0001) // End OBCS MONITOR field statistics
(PID.TID 0000.0001) // =======================================================
 cg2d: Sum(rhs),rhsMax =   4.51250129040842E+00  2.99919452593237E+02
(PID.TID 0000.0001)      cg2d_init_res =   6.10723480261814E-06
(PID.TID 0000.0001)      cg2d_iters(min,last) =      -1      80
(PID.TID 0000.0001)      cg2d_last_res =   9.20843672681324E-12
(PID.TID 0000.0001) // =======================================================
(PID.TID 0000.0001) // Begin MONITOR dynamic field statistics
(PID.TID 0000.0001) // =======================================================
(PID.TID 0000.0001) %MON time_tsnumber                =                   857
(PID.TID 0000.0001) %MON time_secondsf                =   8.5700000000000E+04
(PID.TID 0000.0001) %MON dynstat_eta_max              =   5.7964324419833E+00
(PID.TID 0000.0001) %MON dynstat_eta_min              =  -1.4196023661996E+01
(PID.TID 0000.0001) %MON dynstat_eta_mean             =  -2.5062720682325E+00
(PID.TID 0000.0001) %MON dynstat_eta_sd               =   4.9506956764297E+00
(PID.TID 0000.0001) %MON dynstat_eta_del2             =   2.0714594644627E-01
(PID.TID 0000.0001) %MON dynstat_uvel_max             =   3.1189445523019E-03
(PID.TID 0000.0001) %MON dynstat_uvel_min             =  -1.3944321602615E-02
(PID.TID 0000.0001) %MON dynstat_uvel_mean            =  -1.1789618669703E-07
(PID.TID 0000.0001) %MON dynstat_uvel_sd              =   4.1380821551083E-04
(PID.TID 0000.0001) %MON dynstat_uvel_del2            =   6.5381445298858E-07
(PID.TID 0000.0001) %MON dynstat_vvel_max             =   1.1282882332563E-02
(PID.TID 0000.0001) %MON dynstat_vvel_min             =  -5.2149159174366E-03
(PID.TID 0000.0001) %MON dynstat_vvel_mean            =   1.4952381408589E-05
(PID.TID 0000.0001) %MON dynstat_vvel_sd              =   2.7686101933214E-04
(PID.TID 0000.0001) %MON dynstat_vvel_del2            =   5.7050491845396E-07
(PID.TID 0000.0001) %MON dynstat_wvel_max             =   5.2575716781801E-04
(PID.TID 0000.0001) %MON dynstat_wvel_min             =  -5.2447187594002E-04
(PID.TID 0000.0001) %MON dynstat_wvel_mean            =   6.7044944170978E-09
(PID.TID 0000.0001) %MON dynstat_wvel_sd              =   1.5843013781983E-05
(PID.TID 0000.0001) %MON dynstat_wvel_del2            =   6.2051473751613E-08
(PID.TID 0000.0001) %MON dynstat_theta_max            =   1.2000000000000E+00
(PID.TID 0000.0001) %MON dynstat_theta_min            =  -1.0000000000000E+00
(PID.TID 0000.0001) %MON dynstat_theta_mean           =   5.6887361573807E-01
(PID.TID 0000.0001) %MON dynstat_theta_sd             =   8.6846015884136E-01
(PID.TID 0000.0001) %MON dynstat_theta_del2           =   1.7910184239611E-06
(PID.TID 0000.0001) %MON dynstat_salt_max             =   3.4700000000000E+01
(PID.TID 0000.0001) %MON dynstat_salt_min             =   3.4000000000000E+01
(PID.TID 0000.0001) %MON dynstat_salt_mean            =   3.4499163621905E+01
(PID.TID 0000.0001) %MON dynstat_salt_sd              =   2.7632024435511E-01
(PID.TID 0000.0001) %MON dynstat_salt_del2            =   7.0159320166686E-07
(PID.TID 0000.0001) %MON advcfl_uvel_max              =   1.3944321602615E-03
(PID.TID 0000.0001) %MON advcfl_vvel_max              =   1.1282882332563E-03
(PID.TID 0000.0001) %MON advcfl_wvel_max              =   2.6287858390900E-03
(PID.TID 0000.0001) %MON advcfl_W_hf_max              =   2.6287858390900E-03
(PID.TID 0000.0001) %MON pe_b_mean                    =  -8.3056891577614E-01
(PID.TID 0000.0001) %MON ke_max                       =   5.8523646001161E-05
(PID.TID 0000.0001) %MON ke_mean                      =   1.2235597222179E-07
(PID.TID 0000.0001) %MON ke_vol                       =   4.2724928132122E+12
(PID.TID 0000.0001) // =======================================================
(PID.TID 0000.0001) // End MONITOR dynamic field statistics
(PID.TID 0000.0001) // =======================================================
(PID.TID 0000.0001) // =======================================================
(PID.TID 0000.0001) // Begin OBCS MONITOR field statistics
(PID.TID 0000.0001) // =======================================================
(PID.TID 0000.0001) %MON obc_N_vVel_max               =   1.4709838547886E-05
(PID.TID 0000.0001) %MON obc_N_vVel_min               =   1.4709838547886E-05
(PID.TID 0000.0001) %MON obc_N_vVel_mean              =   1.4709838547886E-05
(PID.TID 0000.0001) %MON obc_N_vVel_sd                =  -1.7474190440183E-23
(PID.TID 0000.0001) %MON obc_N_vVel_Int               =   9.7084934416049E+02
(PID.TID 0000.0001) // =======================================================
(PID.TID 0000.0001) // End OBCS MONITOR field statistics
(PID.TID 0000.0001) // =======================================================
 cg2d: Sum(rhs),rhsMax =   4.51252113984510E+00  2.99919529044515E+02
(PID.TID 0000.0001)      cg2d_init_res =   6.10904836515156E-06
(PID.TID 0000.0001)      cg2d_iters(min,last) =      -1      80
(PID.TID 0000.0001)      cg2d_last_res =   9.21813805508071E-12
(PID.TID 0000.0001) // =======================================================
(PID.TID 0000.0001) // Begin MONITOR dynamic field statistics
(PID.TID 0000.0001) // =======================================================
(PID.TID 0000.0001) %MON time_tsnumber                =                   858
(PID.TID 0000.0001) %MON time_secondsf                =   8.5800000000000E+04
(PID.TID 0000.0001) %MON dynstat_eta_max              =   5.7964254627727E+00
(PID.TID 0000.0001) %MON dynstat_eta_min              =  -1.4196046697848E+01
(PID.TID 0000.0001) %MON dynstat_eta_mean             =  -2.5062837316033E+00
(PID.TID 0000.0001) %MON dynstat_eta_sd               =   4.9506996938114E+00
(PID.TID 0000.0001) %MON dynstat_eta_del2             =   2.0714596587923E-01
(PID.TID 0000.0001) %MON dynstat_uvel_max             =   3.1275476226789E-03
(PID.TID 0000.0001) %MON dynstat_uvel_min             =  -1.3982615802533E-02
(PID.TID 0000.0001) %MON dynstat_uvel_mean            =  -1.1791230679911E-07
(PID.TID 0000.0001) %MON dynstat_uvel_sd              =   4.1489450344627E-04
(PID.TID 0000.0001) %MON dynstat_uvel_del2            =   6.5517522378511E-07
(PID.TID 0000.0001) %MON dynstat_vvel_max             =   1.1312450934629E-02
(PID.TID 0000.0001) %MON dynstat_vvel_min             =  -5.2252322587085E-03
(PID.TID 0000.0001) %MON dynstat_vvel_mean            =   1.4959641219346E-05
(PID.TID 0000.0001) %MON dynstat_vvel_sd              =   2.7748556309637E-04
(PID.TID 0000.0001) %MON dynstat_vvel_del2            =   5.7129486643686E-07
(PID.TID 0000.0001) %MON dynstat_wvel_max             =   5.2736822248762E-04
(PID.TID 0000.0001) %MON dynstat_wvel_min             =  -5.2596210273295E-04
(PID.TID 0000.0001) %MON dynstat_wvel_mean            =   6.7158274885405E-09
(PID.TID 0000.0001) %MON dynstat_wvel_sd              =   1.5767661444644E-05
(PID.TID 0000.0001) %MON dynstat_wvel_del2            =   6.1300947340208E-08
(PID.TID 0000.0001) %MON dynstat_theta_max            =   1.2000000000000E+00
(PID.TID 0000.0001) %MON dynstat_theta_min            =  -1.0000000000000E+00
(PID.TID 0000.0001) %MON dynstat_theta_mean           =   5.6887305729765E-01
(PID.TID 0000.0001) %MON dynstat_theta_sd             =   8.6845985209900E-01
(PID.TID 0000.0001) %MON dynstat_theta_del2           =   1.7945590710877E-06
(PID.TID 0000.0001) %MON dynstat_salt_max             =   3.4700000000000E+01
(PID.TID 0000.0001) %MON dynstat_salt_min             =   3.4000000000000E+01
(PID.TID 0000.0001) %MON dynstat_salt_mean            =   3.4499163398567E+01
(PID.TID 0000.0001) %MON dynstat_salt_sd              =   2.7632012723108E-01
(PID.TID 0000.0001) %MON dynstat_salt_del2            =   7.0301346668817E-07
(PID.TID 0000.0001) %MON advcfl_uvel_max              =   1.3982615802533E-03
(PID.TID 0000.0001) %MON advcfl_vvel_max              =   1.1312450934629E-03
(PID.TID 0000.0001) %MON advcfl_wvel_max              =   2.6368411124381E-03
(PID.TID 0000.0001) %MON advcfl_W_hf_max              =   2.6368411124381E-03
(PID.TID 0000.0001) %MON pe_b_mean                    =  -8.3057212550622E-01
(PID.TID 0000.0001) %MON ke_max                       =   5.8874565435052E-05
(PID.TID 0000.0001) %MON ke_mean                      =   1.2297035931659E-07
(PID.TID 0000.0001) %MON ke_vol                       =   4.2724927439147E+12
(PID.TID 0000.0001) // =======================================================
(PID.TID 0000.0001) // End MONITOR dynamic field statistics
(PID.TID 0000.0001) // =======================================================
(PID.TID 0000.0001) // =======================================================
(PID.TID 0000.0001) // Begin OBCS MONITOR field statistics
(PID.TID 0000.0001) // =======================================================
(PID.TID 0000.0001) %MON obc_N_vVel_max               =   1.4716247822136E-05
(PID.TID 0000.0001) %MON obc_N_vVel_min               =   1.4716247822136E-05
(PID.TID 0000.0001) %MON obc_N_vVel_mean              =   1.4716247822136E-05
(PID.TID 0000.0001) %MON obc_N_vVel_sd                =  -8.5819988552377E-24
(PID.TID 0000.0001) %MON obc_N_vVel_Int               =   9.7127235626097E+02
(PID.TID 0000.0001) // =======================================================
(PID.TID 0000.0001) // End OBCS MONITOR field statistics
(PID.TID 0000.0001) // =======================================================
 cg2d: Sum(rhs),rhsMax =   4.51254098149232E+00  2.99919605731341E+02
(PID.TID 0000.0001)      cg2d_init_res =   6.11074678271436E-06
(PID.TID 0000.0001)      cg2d_iters(min,last) =      -1      80
(PID.TID 0000.0001)      cg2d_last_res =   9.22870932567849E-12
(PID.TID 0000.0001) // =======================================================
(PID.TID 0000.0001) // Begin MONITOR dynamic field statistics
(PID.TID 0000.0001) // =======================================================
(PID.TID 0000.0001) %MON time_tsnumber                =                   859
(PID.TID 0000.0001) %MON time_secondsf                =   8.5900000000000E+04
(PID.TID 0000.0001) %MON dynstat_eta_max              =   5.7964184997762E+00
(PID.TID 0000.0001) %MON dynstat_eta_min              =  -1.4196069731647E+01
(PID.TID 0000.0001) %MON dynstat_eta_mean             =  -2.5062953926217E+00
(PID.TID 0000.0001) %MON dynstat_eta_sd               =   4.9507037115077E+00
(PID.TID 0000.0001) %MON dynstat_eta_del2             =   2.0714598536339E-01
(PID.TID 0000.0001) %MON dynstat_uvel_max             =   3.1361700246215E-03
(PID.TID 0000.0001) %MON dynstat_uvel_min             =  -1.4020984943667E-02
(PID.TID 0000.0001) %MON dynstat_uvel_mean            =  -1.1792718028188E-07
(PID.TID 0000.0001) %MON dynstat_uvel_sd              =   4.1598405287277E-04
(PID.TID 0000.0001) %MON dynstat_uvel_del2            =   6.5653986387338E-07
(PID.TID 0000.0001) %MON dynstat_vvel_max             =   1.1342073528461E-02
(PID.TID 0000.0001) %MON dynstat_vvel_min             =  -5.2355597876295E-03
(PID.TID 0000.0001) %MON dynstat_vvel_mean            =   1.4967443758551E-05
(PID.TID 0000.0001) %MON dynstat_vvel_sd              =   2.7811370516618E-04
(PID.TID 0000.0001) %MON dynstat_vvel_del2            =   5.7208906418835E-07
(PID.TID 0000.0001) %MON dynstat_wvel_max             =   5.2898303177150E-04
(PID.TID 0000.0001) %MON dynstat_wvel_min             =  -5.2745607786847E-04
(PID.TID 0000.0001) %MON dynstat_wvel_mean            =   6.7277205616031E-09
(PID.TID 0000.0001) %MON dynstat_wvel_sd              =   1.5693555647814E-05
(PID.TID 0000.0001) %MON dynstat_wvel_del2            =   6.0540086812272E-08
(PID.TID 0000.0001) %MON dynstat_theta_max            =   1.2000000000000E+00
(PID.TID 0000.0001) %MON dynstat_theta_min            =  -1.0000000000000E+00
(PID.TID 0000.0001) %MON dynstat_theta_mean           =   5.6887249772920E-01
(PID.TID 0000.0001) %MON dynstat_theta_sd             =   8.6845954472892E-01
(PID.TID 0000.0001) %MON dynstat_theta_del2           =   1.7981086628892E-06
(PID.TID 0000.0001) %MON dynstat_salt_max             =   3.4700000000000E+01
(PID.TID 0000.0001) %MON dynstat_salt_min             =   3.4000000000000E+01
(PID.TID 0000.0001) %MON dynstat_salt_mean            =   3.4499163174771E+01
(PID.TID 0000.0001) %MON dynstat_salt_sd              =   2.7632000986091E-01
(PID.TID 0000.0001) %MON dynstat_salt_del2            =   7.0443707579884E-07
(PID.TID 0000.0001) %MON advcfl_uvel_max              =   1.4020984943667E-03
(PID.TID 0000.0001) %MON advcfl_vvel_max              =   1.1342073528461E-03
(PID.TID 0000.0001) %MON advcfl_wvel_max              =   2.6449151588575E-03
(PID.TID 0000.0001) %MON advcfl_W_hf_max              =   2.6449151588575E-03
(PID.TID 0000.0001) %MON pe_b_mean                    =  -8.3057533385462E-01
(PID.TID 0000.0001) %MON ke_max                       =   5.9227377113288E-05
(PID.TID 0000.0001) %MON ke_mean                      =   1.2358863168144E-07
(PID.TID 0000.0001) %MON ke_vol                       =   4.2724926746343E+12
(PID.TID 0000.0001) // =======================================================
(PID.TID 0000.0001) // End MONITOR dynamic field statistics
(PID.TID 0000.0001) // =======================================================
(PID.TID 0000.0001) // =======================================================
(PID.TID 0000.0001) // Begin OBCS MONITOR field statistics
(PID.TID 0000.0001) // =======================================================
(PID.TID 0000.0001) %MON obc_N_vVel_max               =   1.4723153579037E-05
(PID.TID 0000.0001) %MON obc_N_vVel_min               =   1.4723153579036E-05
(PID.TID 0000.0001) %MON obc_N_vVel_mean              =   1.4723153579036E-05
(PID.TID 0000.0001) %MON obc_N_vVel_sd                =   2.4223568007827E-12
(PID.TID 0000.0001) %MON obc_N_vVel_Int               =   9.7172813621638E+02
(PID.TID 0000.0001) // =======================================================
(PID.TID 0000.0001) // End OBCS MONITOR field statistics
(PID.TID 0000.0001) // =======================================================
 cg2d: Sum(rhs),rhsMax =   4.51256081613913E+00  2.99919682664071E+02
(PID.TID 0000.0001)      cg2d_init_res =   6.11298737382293E-06
(PID.TID 0000.0001)      cg2d_iters(min,last) =      -1      80
(PID.TID 0000.0001)      cg2d_last_res =   9.23958192555749E-12
(PID.TID 0000.0001) // =======================================================
(PID.TID 0000.0001) // Begin MONITOR dynamic field statistics
(PID.TID 0000.0001) // =======================================================
(PID.TID 0000.0001) %MON time_tsnumber                =                   860
(PID.TID 0000.0001) %MON time_secondsf                =   8.6000000000000E+04
(PID.TID 0000.0001) %MON dynstat_eta_max              =   5.7964115522075E+00
(PID.TID 0000.0001) %MON dynstat_eta_min              =  -1.4196092764370E+01
(PID.TID 0000.0001) %MON dynstat_eta_mean             =  -2.5063070518125E+00
(PID.TID 0000.0001) %MON dynstat_eta_sd               =   4.9507077296861E+00
(PID.TID 0000.0001) %MON dynstat_eta_del2             =   2.0714600489883E-01
(PID.TID 0000.0001) %MON dynstat_uvel_max             =   3.1448117891806E-03
(PID.TID 0000.0001) %MON dynstat_uvel_min             =  -1.4059428986588E-02
(PID.TID 0000.0001) %MON dynstat_uvel_mean            =  -1.1794080101681E-07
(PID.TID 0000.0001) %MON dynstat_uvel_sd              =   4.1707686206837E-04
(PID.TID 0000.0001) %MON dynstat_uvel_del2            =   6.5790832821045E-07
(PID.TID 0000.0001) %MON dynstat_vvel_max             =   1.1371750130066E-02
(PID.TID 0000.0001) %MON dynstat_vvel_min             =  -5.2458985292674E-03
(PID.TID 0000.0001) %MON dynstat_vvel_mean            =   1.4975788266330E-05
(PID.TID 0000.0001) %MON dynstat_vvel_sd              =   2.7874658219471E-04
(PID.TID 0000.0001) %MON dynstat_vvel_del2            =   5.7290922469239E-07
(PID.TID 0000.0001) %MON dynstat_wvel_max             =   5.3060160020197E-04
(PID.TID 0000.0001) %MON dynstat_wvel_min             =  -5.2895380642763E-04
(PID.TID 0000.0001) %MON dynstat_wvel_mean            =   6.7401337363182E-09
(PID.TID 0000.0001) %MON dynstat_wvel_sd              =   1.5627744699490E-05
(PID.TID 0000.0001) %MON dynstat_wvel_del2            =   5.9843889754048E-08
(PID.TID 0000.0001) %MON dynstat_theta_max            =   1.2000000000000E+00
(PID.TID 0000.0001) %MON dynstat_theta_min            =  -1.0000000000000E+00
(PID.TID 0000.0001) %MON dynstat_theta_mean           =   5.6887193702363E-01
(PID.TID 0000.0001) %MON dynstat_theta_sd             =   8.6845923672894E-01
(PID.TID 0000.0001) %MON dynstat_theta_del2           =   1.8016487060105E-06
(PID.TID 0000.0001) %MON dynstat_salt_max             =   3.4700000000000E+01
(PID.TID 0000.0001) %MON dynstat_salt_min             =   3.4000000000000E+01
(PID.TID 0000.0001) %MON dynstat_salt_mean            =   3.4499162950514E+01
(PID.TID 0000.0001) %MON dynstat_salt_sd              =   2.7631989224370E-01
(PID.TID 0000.0001) %MON dynstat_salt_del2            =   7.0585908125284E-07
(PID.TID 0000.0001) %MON advcfl_uvel_max              =   1.4059428986588E-03
(PID.TID 0000.0001) %MON advcfl_vvel_max              =   1.1371750130066E-03
(PID.TID 0000.0001) %MON advcfl_wvel_max              =   2.6530080010099E-03
(PID.TID 0000.0001) %MON advcfl_W_hf_max              =   2.6530080010099E-03
(PID.TID 0000.0001) %MON pe_b_mean                    =  -8.3057854095031E-01
(PID.TID 0000.0001) %MON ke_max                       =   5.9582089085373E-05
(PID.TID 0000.0001) %MON ke_mean                      =   1.2421112265271E-07
(PID.TID 0000.0001) %MON ke_vol                       =   4.2724926053678E+12
(PID.TID 0000.0001) // =======================================================
(PID.TID 0000.0001) // End MONITOR dynamic field statistics
(PID.TID 0000.0001) // =======================================================
(PID.TID 0000.0001) // =======================================================
(PID.TID 0000.0001) // Begin OBCS MONITOR field statistics
(PID.TID 0000.0001) // =======================================================
(PID.TID 0000.0001) %MON obc_N_vVel_max               =   1.4730557807206E-05
(PID.TID 0000.0001) %MON obc_N_vVel_min               =   1.4730557807205E-05
(PID.TID 0000.0001) %MON obc_N_vVel_mean              =   1.4730557807206E-05
(PID.TID 0000.0001) %MON obc_N_vVel_sd                =  -1.0081263715490E-23
(PID.TID 0000.0001) %MON obc_N_vVel_Int               =   9.7221681527558E+02
(PID.TID 0000.0001) // =======================================================
(PID.TID 0000.0001) // End OBCS MONITOR field statistics
(PID.TID 0000.0001) // =======================================================
 cg2d: Sum(rhs),rhsMax =   4.51258064458522E+00  2.99919759852037E+02
(PID.TID 0000.0001)      cg2d_init_res =   6.11634461291132E-06
(PID.TID 0000.0001)      cg2d_iters(min,last) =      -1      80
(PID.TID 0000.0001)      cg2d_last_res =   9.25035150670019E-12
(PID.TID 0000.0001) // =======================================================
(PID.TID 0000.0001) // Begin MONITOR dynamic field statistics
(PID.TID 0000.0001) // =======================================================
(PID.TID 0000.0001) %MON time_tsnumber                =                   861
(PID.TID 0000.0001) %MON time_secondsf                =   8.6100000000000E+04
(PID.TID 0000.0001) %MON dynstat_eta_max              =   5.7964046192514E+00
(PID.TID 0000.0001) %MON dynstat_eta_min              =  -1.4196115797007E+01
(PID.TID 0000.0001) %MON dynstat_eta_mean             =  -2.5063187096981E+00
(PID.TID 0000.0001) %MON dynstat_eta_sd               =   4.9507117485102E+00
(PID.TID 0000.0001) %MON dynstat_eta_del2             =   2.0714602448540E-01
(PID.TID 0000.0001) %MON dynstat_uvel_max             =   3.1534729453924E-03
(PID.TID 0000.0001) %MON dynstat_uvel_min             =  -1.4097947890583E-02
(PID.TID 0000.0001) %MON dynstat_uvel_mean            =  -1.1795323568306E-07
(PID.TID 0000.0001) %MON dynstat_uvel_sd              =   4.1817293025942E-04
(PID.TID 0000.0001) %MON dynstat_uvel_del2            =   6.5928057482960E-07
(PID.TID 0000.0001) %MON dynstat_vvel_max             =   1.1401480752180E-02
(PID.TID 0000.0001) %MON dynstat_vvel_min             =  -5.2562485100962E-03
(PID.TID 0000.0001) %MON dynstat_vvel_mean            =   1.4984671481524E-05
(PID.TID 0000.0001) %MON dynstat_vvel_sd              =   2.7938517534048E-04
(PID.TID 0000.0001) %MON dynstat_vvel_del2            =   5.7377430815104E-07
(PID.TID 0000.0001) %MON dynstat_wvel_max             =   5.3222393300812E-04
(PID.TID 0000.0001) %MON dynstat_wvel_min             =  -5.3045529307807E-04
(PID.TID 0000.0001) %MON dynstat_wvel_mean            =   6.7530539887233E-09
(PID.TID 0000.0001) %MON dynstat_wvel_sd              =   1.5576587985667E-05
(PID.TID 0000.0001) %MON dynstat_wvel_del2            =   5.9282367846403E-08
(PID.TID 0000.0001) %MON dynstat_theta_max            =   1.2000000000000E+00
(PID.TID 0000.0001) %MON dynstat_theta_min            =  -1.0000000000000E+00
(PID.TID 0000.0001) %MON dynstat_theta_mean           =   5.6887137517061E-01
(PID.TID 0000.0001) %MON dynstat_theta_sd             =   8.6845892810183E-01
(PID.TID 0000.0001) %MON dynstat_theta_del2           =   1.8051637575046E-06
(PID.TID 0000.0001) %MON dynstat_salt_max             =   3.4700000000000E+01
(PID.TID 0000.0001) %MON dynstat_salt_min             =   3.4000000000000E+01
(PID.TID 0000.0001) %MON dynstat_salt_mean            =   3.4499162725793E+01
(PID.TID 0000.0001) %MON dynstat_salt_sd              =   2.7631977438043E-01
(PID.TID 0000.0001) %MON dynstat_salt_del2            =   7.0727557001105E-07
(PID.TID 0000.0001) %MON advcfl_uvel_max              =   1.4097947890583E-03
(PID.TID 0000.0001) %MON advcfl_vvel_max              =   1.1401480752180E-03
(PID.TID 0000.0001) %MON advcfl_wvel_max              =   2.6611196650406E-03
(PID.TID 0000.0001) %MON advcfl_W_hf_max              =   2.6611196650406E-03
(PID.TID 0000.0001) %MON pe_b_mean                    =  -8.3058174692155E-01
(PID.TID 0000.0001) %MON ke_max                       =   5.9938709423713E-05
(PID.TID 0000.0001) %MON ke_mean                      =   1.2483812543905E-07
(PID.TID 0000.0001) %MON ke_vol                       =   4.2724925361122E+12
(PID.TID 0000.0001) // =======================================================
(PID.TID 0000.0001) // End MONITOR dynamic field statistics
(PID.TID 0000.0001) // =======================================================
(PID.TID 0000.0001) // =======================================================
(PID.TID 0000.0001) // Begin OBCS MONITOR field statistics
(PID.TID 0000.0001) // =======================================================
(PID.TID 0000.0001) %MON obc_N_vVel_max               =   1.4738457942247E-05
(PID.TID 0000.0001) %MON obc_N_vVel_min               =   1.4738457942247E-05
(PID.TID 0000.0001) %MON obc_N_vVel_mean              =   1.4738457942247E-05
(PID.TID 0000.0001) %MON obc_N_vVel_sd                =   1.1923576132292E-12
(PID.TID 0000.0001) %MON obc_N_vVel_Int               =   9.7273822418830E+02
(PID.TID 0000.0001) // =======================================================
(PID.TID 0000.0001) // End OBCS MONITOR field statistics
(PID.TID 0000.0001) // =======================================================
 cg2d: Sum(rhs),rhsMax =   4.51260046763336E+00  2.99919837304084E+02
(PID.TID 0000.0001)      cg2d_init_res =   6.12137959482655E-06
(PID.TID 0000.0001)      cg2d_iters(min,last) =      -1      80
(PID.TID 0000.0001)      cg2d_last_res =   9.26100911225405E-12
(PID.TID 0000.0001) // =======================================================
(PID.TID 0000.0001) // Begin MONITOR dynamic field statistics
(PID.TID 0000.0001) // =======================================================
(PID.TID 0000.0001) %MON time_tsnumber                =                   862
(PID.TID 0000.0001) %MON time_secondsf                =   8.6200000000000E+04
(PID.TID 0000.0001) %MON dynstat_eta_max              =   5.7963977000875E+00
(PID.TID 0000.0001) %MON dynstat_eta_min              =  -1.4196138830544E+01
(PID.TID 0000.0001) %MON dynstat_eta_mean             =  -2.5063303667980E+00
(PID.TID 0000.0001) %MON dynstat_eta_sd               =   4.9507157681528E+00
(PID.TID 0000.0001) %MON dynstat_eta_del2             =   2.0714604412376E-01
(PID.TID 0000.0001) %MON dynstat_uvel_max             =   3.1621535230428E-03
(PID.TID 0000.0001) %MON dynstat_uvel_min             =  -1.4136541614004E-02
(PID.TID 0000.0001) %MON dynstat_uvel_mean            =  -1.1796451941029E-07
(PID.TID 0000.0001) %MON dynstat_uvel_sd              =   4.1927225762734E-04
(PID.TID 0000.0001) %MON dynstat_uvel_del2            =   6.6065657423824E-07
(PID.TID 0000.0001) %MON dynstat_vvel_max             =   1.1431265406413E-02
(PID.TID 0000.0001) %MON dynstat_vvel_min             =  -5.2666097565561E-03
(PID.TID 0000.0001) %MON dynstat_vvel_mean            =   1.4994087982852E-05
(PID.TID 0000.0001) %MON dynstat_vvel_sd              =   2.8003021396886E-04
(PID.TID 0000.0001) %MON dynstat_vvel_del2            =   5.7469874245545E-07
(PID.TID 0000.0001) %MON dynstat_wvel_max             =   5.3385003550983E-04
(PID.TID 0000.0001) %MON dynstat_wvel_min             =  -5.3196054238819E-04
(PID.TID 0000.0001) %MON dynstat_wvel_mean            =   6.7664586195922E-09
(PID.TID 0000.0001) %MON dynstat_wvel_sd              =   1.5545119705644E-05
(PID.TID 0000.0001) %MON dynstat_wvel_del2            =   5.8912643228705E-08
(PID.TID 0000.0001) %MON dynstat_theta_max            =   1.2000000000000E+00
(PID.TID 0000.0001) %MON dynstat_theta_min            =  -1.0000000000000E+00
(PID.TID 0000.0001) %MON dynstat_theta_mean           =   5.6887081215884E-01
(PID.TID 0000.0001) %MON dynstat_theta_sd             =   8.6845861885007E-01
(PID.TID 0000.0001) %MON dynstat_theta_del2           =   1.8086429873128E-06
(PID.TID 0000.0001) %MON dynstat_salt_max             =   3.4700000000000E+01
(PID.TID 0000.0001) %MON dynstat_salt_min             =   3.4000000000000E+01
(PID.TID 0000.0001) %MON dynstat_salt_mean            =   3.4499162500603E+01
(PID.TID 0000.0001) %MON dynstat_salt_sd              =   2.7631965627169E-01
(PID.TID 0000.0001) %MON dynstat_salt_del2            =   7.0868372600416E-07
(PID.TID 0000.0001) %MON advcfl_uvel_max              =   1.4136541614004E-03
(PID.TID 0000.0001) %MON advcfl_vvel_max              =   1.1431265406413E-03
(PID.TID 0000.0001) %MON advcfl_wvel_max              =   2.6692501775491E-03
(PID.TID 0000.0001) %MON advcfl_W_hf_max              =   2.6692501775491E-03
(PID.TID 0000.0001) %MON pe_b_mean                    =  -8.3058495189579E-01
(PID.TID 0000.0001) %MON ke_max                       =   6.0297246226397E-05
(PID.TID 0000.0001) %MON ke_mean                      =   1.2546986572827E-07
(PID.TID 0000.0001) %MON ke_vol                       =   4.2724924668644E+12
(PID.TID 0000.0001) // =======================================================
(PID.TID 0000.0001) // End MONITOR dynamic field statistics
(PID.TID 0000.0001) // =======================================================
(PID.TID 0000.0001) // =======================================================
(PID.TID 0000.0001) // Begin OBCS MONITOR field statistics
(PID.TID 0000.0001) // =======================================================
(PID.TID 0000.0001) %MON obc_N_vVel_max               =   1.4746850381369E-05
(PID.TID 0000.0001) %MON obc_N_vVel_min               =   1.4746850381369E-05
(PID.TID 0000.0001) %MON obc_N_vVel_mean              =   1.4746850381369E-05
(PID.TID 0000.0001) %MON obc_N_vVel_sd                =   2.9470996643831E-12
(PID.TID 0000.0001) %MON obc_N_vVel_Int               =   9.7329212517033E+02
(PID.TID 0000.0001) // =======================================================
(PID.TID 0000.0001) // End OBCS MONITOR field statistics
(PID.TID 0000.0001) // =======================================================
 cg2d: Sum(rhs),rhsMax =   4.51262028608695E+00  2.99919915028610E+02
(PID.TID 0000.0001)      cg2d_init_res =   6.12848014253616E-06
(PID.TID 0000.0001)      cg2d_iters(min,last) =      -1      80
(PID.TID 0000.0001)      cg2d_last_res =   9.27142735726202E-12
(PID.TID 0000.0001) // =======================================================
(PID.TID 0000.0001) // Begin MONITOR dynamic field statistics
(PID.TID 0000.0001) // =======================================================
(PID.TID 0000.0001) %MON time_tsnumber                =                   863
(PID.TID 0000.0001) %MON time_secondsf                =   8.6300000000000E+04
(PID.TID 0000.0001) %MON dynstat_eta_max              =   5.7963907939116E+00
(PID.TID 0000.0001) %MON dynstat_eta_min              =  -1.4196161865944E+01
(PID.TID 0000.0001) %MON dynstat_eta_mean             =  -2.5063420236288E+00
(PID.TID 0000.0001) %MON dynstat_eta_sd               =   4.9507197887769E+00
(PID.TID 0000.0001) %MON dynstat_eta_del2             =   2.0714606381416E-01
(PID.TID 0000.0001) %MON dynstat_uvel_max             =   3.1708535525894E-03
(PID.TID 0000.0001) %MON dynstat_uvel_min             =  -1.4175210114139E-02
(PID.TID 0000.0001) %MON dynstat_uvel_mean            =  -1.1797463951634E-07
(PID.TID 0000.0001) %MON dynstat_uvel_sd              =   4.2037484546039E-04
(PID.TID 0000.0001) %MON dynstat_uvel_del2            =   6.6203630728554E-07
(PID.TID 0000.0001) %MON dynstat_vvel_max             =   1.1461104103647E-02
(PID.TID 0000.0001) %MON dynstat_vvel_min             =  -5.2769822949088E-03
(PID.TID 0000.0001) %MON dynstat_vvel_mean            =   1.5004030318100E-05
(PID.TID 0000.0001) %MON dynstat_vvel_sd              =   2.8068210350920E-04
(PID.TID 0000.0001) %MON dynstat_vvel_del2            =   5.7569111910732E-07
(PID.TID 0000.0001) %MON dynstat_wvel_max             =   5.3547991296748E-04
(PID.TID 0000.0001) %MON dynstat_wvel_min             =  -5.3346955901074E-04
(PID.TID 0000.0001) %MON dynstat_wvel_mean            =   6.7803223927981E-09
(PID.TID 0000.0001) %MON dynstat_wvel_sd              =   1.5536539821112E-05
(PID.TID 0000.0001) %MON dynstat_wvel_del2            =   5.8771888431266E-08
(PID.TID 0000.0001) %MON dynstat_theta_max            =   1.2000000000000E+00
(PID.TID 0000.0001) %MON dynstat_theta_min            =  -1.0000000000000E+00
(PID.TID 0000.0001) %MON dynstat_theta_mean           =   5.6887024797633E-01
(PID.TID 0000.0001) %MON dynstat_theta_sd             =   8.6845830897602E-01
(PID.TID 0000.0001) %MON dynstat_theta_del2           =   1.8120813247076E-06
(PID.TID 0000.0001) %MON dynstat_salt_max             =   3.4700000000000E+01
(PID.TID 0000.0001) %MON dynstat_salt_min             =   3.4000000000000E+01
(PID.TID 0000.0001) %MON dynstat_salt_mean            =   3.4499162274941E+01
(PID.TID 0000.0001) %MON dynstat_salt_sd              =   2.7631953791829E-01
(PID.TID 0000.0001) %MON dynstat_salt_del2            =   7.1008222519213E-07
(PID.TID 0000.0001) %MON advcfl_uvel_max              =   1.4175210114139E-03
(PID.TID 0000.0001) %MON advcfl_vvel_max              =   1.1461104103647E-03
(PID.TID 0000.0001) %MON advcfl_wvel_max              =   2.6773995648374E-03
(PID.TID 0000.0001) %MON advcfl_W_hf_max              =   2.6773995648374E-03
(PID.TID 0000.0001) %MON pe_b_mean                    =  -8.3058815599885E-01
(PID.TID 0000.0001) %MON ke_max                       =   6.0657707605393E-05
(PID.TID 0000.0001) %MON ke_mean                      =   1.2610648074920E-07
(PID.TID 0000.0001) %MON ke_vol                       =   4.2724923976212E+12
(PID.TID 0000.0001) // =======================================================
(PID.TID 0000.0001) // End MONITOR dynamic field statistics
(PID.TID 0000.0001) // =======================================================
(PID.TID 0000.0001) // =======================================================
(PID.TID 0000.0001) // Begin OBCS MONITOR field statistics
(PID.TID 0000.0001) // =======================================================
(PID.TID 0000.0001) %MON obc_N_vVel_max               =   1.4755729762740E-05
(PID.TID 0000.0001) %MON obc_N_vVel_min               =   1.4755729762740E-05
(PID.TID 0000.0001) %MON obc_N_vVel_mean              =   1.4755729762740E-05
(PID.TID 0000.0001) %MON obc_N_vVel_sd                =   2.5011104298756E-12
(PID.TID 0000.0001) %MON obc_N_vVel_Int               =   9.7387816434085E+02
(PID.TID 0000.0001) // =======================================================
(PID.TID 0000.0001) // End OBCS MONITOR field statistics
(PID.TID 0000.0001) // =======================================================
 cg2d: Sum(rhs),rhsMax =   4.51264010074290E+00  2.99919993033510E+02
(PID.TID 0000.0001)      cg2d_init_res =   6.13784648265833E-06
(PID.TID 0000.0001)      cg2d_iters(min,last) =      -1      80
(PID.TID 0000.0001)      cg2d_last_res =   9.28182451808659E-12
(PID.TID 0000.0001) // =======================================================
(PID.TID 0000.0001) // Begin MONITOR dynamic field statistics
(PID.TID 0000.0001) // =======================================================
(PID.TID 0000.0001) %MON time_tsnumber                =                   864
(PID.TID 0000.0001) %MON time_secondsf                =   8.6400000000000E+04
(PID.TID 0000.0001) %MON dynstat_eta_max              =   5.7963838999390E+00
(PID.TID 0000.0001) %MON dynstat_eta_min              =  -1.4196184904161E+01
(PID.TID 0000.0001) %MON dynstat_eta_mean             =  -2.5063536806992E+00
(PID.TID 0000.0001) %MON dynstat_eta_sd               =   4.9507238105418E+00
(PID.TID 0000.0001) %MON dynstat_eta_del2             =   2.0714608355681E-01
(PID.TID 0000.0001) %MON dynstat_uvel_max             =   3.1795730644397E-03
(PID.TID 0000.0001) %MON dynstat_uvel_min             =  -1.4213953347369E-02
(PID.TID 0000.0001) %MON dynstat_uvel_mean            =  -1.1798353991272E-07
(PID.TID 0000.0001) %MON dynstat_uvel_sd              =   4.2148069618704E-04
(PID.TID 0000.0001) %MON dynstat_uvel_del2            =   6.6341976590095E-07
(PID.TID 0000.0001) %MON dynstat_vvel_max             =   1.1490996854116E-02
(PID.TID 0000.0001) %MON dynstat_vvel_min             =  -5.2873661512605E-03
(PID.TID 0000.0001) %MON dynstat_vvel_mean            =   1.5014489058044E-05
(PID.TID 0000.0001) %MON dynstat_vvel_sd              =   2.8134088352594E-04
(PID.TID 0000.0001) %MON dynstat_vvel_del2            =   5.7675348428973E-07
(PID.TID 0000.0001) %MON dynstat_wvel_max             =   5.3711357062664E-04
(PID.TID 0000.0001) %MON dynstat_wvel_min             =  -5.3498234745311E-04
(PID.TID 0000.0001) %MON dynstat_wvel_mean            =   6.7946177100707E-09
(PID.TID 0000.0001) %MON dynstat_wvel_sd              =   1.5551901817675E-05
(PID.TID 0000.0001) %MON dynstat_wvel_del2            =   5.8872520490747E-08
(PID.TID 0000.0001) %MON dynstat_theta_max            =   1.2000000000000E+00
(PID.TID 0000.0001) %MON dynstat_theta_min            =  -1.0000000000000E+00
(PID.TID 0000.0001) %MON dynstat_theta_mean           =   5.6886968261039E-01
(PID.TID 0000.0001) %MON dynstat_theta_sd             =   8.6845799847392E-01
(PID.TID 0000.0001) %MON dynstat_theta_del2           =   1.8154798110892E-06
(PID.TID 0000.0001) %MON dynstat_salt_max             =   3.4700000000000E+01
(PID.TID 0000.0001) %MON dynstat_salt_min             =   3.4000000000000E+01
(PID.TID 0000.0001) %MON dynstat_salt_mean            =   3.4499162048803E+01
(PID.TID 0000.0001) %MON dynstat_salt_sd              =   2.7631941931818E-01
(PID.TID 0000.0001) %MON dynstat_salt_del2            =   7.1147135645925E-07
(PID.TID 0000.0001) %MON advcfl_uvel_max              =   1.4213953347369E-03
(PID.TID 0000.0001) %MON advcfl_vvel_max              =   1.1490996854116E-03
(PID.TID 0000.0001) %MON advcfl_wvel_max              =   2.6855678531332E-03
(PID.TID 0000.0001) %MON advcfl_W_hf_max              =   2.6855678531332E-03
(PID.TID 0000.0001) %MON pe_b_mean                    =  -8.3059135935405E-01
(PID.TID 0000.0001) %MON ke_max                       =   6.1020101691657E-05
(PID.TID 0000.0001) %MON ke_mean                      =   1.2674800647855E-07
(PID.TID 0000.0001) %MON ke_vol                       =   4.2724923283796E+12
(PID.TID 0000.0001) // =======================================================
(PID.TID 0000.0001) // End MONITOR dynamic field statistics
(PID.TID 0000.0001) // =======================================================
(PID.TID 0000.0001) // =======================================================
(PID.TID 0000.0001) // Begin OBCS MONITOR field statistics
(PID.TID 0000.0001) // =======================================================
(PID.TID 0000.0001) %MON obc_N_vVel_max               =   1.4765088807520E-05
(PID.TID 0000.0001) %MON obc_N_vVel_min               =   1.4765088807520E-05
(PID.TID 0000.0001) %MON obc_N_vVel_mean              =   1.4765088807520E-05
(PID.TID 0000.0001) %MON obc_N_vVel_sd                =   4.2476907975173E-12
(PID.TID 0000.0001) %MON obc_N_vVel_Int               =   9.7449586129630E+02
(PID.TID 0000.0001) // =======================================================
(PID.TID 0000.0001) // End OBCS MONITOR field statistics
(PID.TID 0000.0001) // =======================================================
(PID.TID 0000.0001) %CHECKPOINT       864 0000000864
 cg2d: Sum(rhs),rhsMax =   4.51265991238047E+00  2.99920071326110E+02
(PID.TID 0000.0001)      cg2d_init_res =   6.14948882832793E-06
(PID.TID 0000.0001)      cg2d_iters(min,last) =      -1      80
(PID.TID 0000.0001)      cg2d_last_res =   9.29265252573217E-12
(PID.TID 0000.0001) // =======================================================
(PID.TID 0000.0001) // Begin MONITOR dynamic field statistics
(PID.TID 0000.0001) // =======================================================
(PID.TID 0000.0001) %MON time_tsnumber                =                   865
(PID.TID 0000.0001) %MON time_secondsf                =   8.6500000000000E+04
(PID.TID 0000.0001) %MON dynstat_eta_max              =   5.7963770174134E+00
(PID.TID 0000.0001) %MON dynstat_eta_min              =  -1.4196207946130E+01
(PID.TID 0000.0001) %MON dynstat_eta_mean             =  -2.5063653385030E+00
(PID.TID 0000.0001) %MON dynstat_eta_sd               =   4.9507278335976E+00
(PID.TID 0000.0001) %MON dynstat_eta_del2             =   2.0714610335192E-01
(PID.TID 0000.0001) %MON dynstat_uvel_max             =   3.1883120888629E-03
(PID.TID 0000.0001) %MON dynstat_uvel_min             =  -1.4252771269838E-02
(PID.TID 0000.0001) %MON dynstat_uvel_mean            =  -1.1799113062795E-07
(PID.TID 0000.0001) %MON dynstat_uvel_sd              =   4.2258981334160E-04
(PID.TID 0000.0001) %MON dynstat_uvel_del2            =   6.6480695372992E-07
(PID.TID 0000.0001) %MON dynstat_vvel_max             =   1.1520943667404E-02
(PID.TID 0000.0001) %MON dynstat_vvel_min             =  -5.2977613519545E-03
(PID.TID 0000.0001) %MON dynstat_vvel_mean            =   1.5025452771109E-05
(PID.TID 0000.0001) %MON dynstat_vvel_sd              =   2.8200621920346E-04
(PID.TID 0000.0001) %MON dynstat_vvel_del2            =   5.7788128607264E-07
(PID.TID 0000.0001) %MON dynstat_wvel_max             =   5.3875101369619E-04
(PID.TID 0000.0001) %MON dynstat_wvel_min             =  -5.3649891224004E-04
(PID.TID 0000.0001) %MON dynstat_wvel_mean            =   6.8093156433913E-09
(PID.TID 0000.0001) %MON dynstat_wvel_sd              =   1.5590042438299E-05
(PID.TID 0000.0001) %MON dynstat_wvel_del2            =   5.9200778552247E-08
(PID.TID 0000.0001) %MON dynstat_theta_max            =   1.2000000000000E+00
(PID.TID 0000.0001) %MON dynstat_theta_min            =  -1.0000000000000E+00
(PID.TID 0000.0001) %MON dynstat_theta_mean           =   5.6886911604733E-01
(PID.TID 0000.0001) %MON dynstat_theta_sd             =   8.6845768732874E-01
(PID.TID 0000.0001) %MON dynstat_theta_del2           =   1.8188455714566E-06
(PID.TID 0000.0001) %MON dynstat_salt_max             =   3.4700000000000E+01
(PID.TID 0000.0001) %MON dynstat_salt_min             =   3.4000000000000E+01
(PID.TID 0000.0001) %MON dynstat_salt_mean            =   3.4499161822183E+01
(PID.TID 0000.0001) %MON dynstat_salt_sd              =   2.7631930046641E-01
(PID.TID 0000.0001) %MON dynstat_salt_del2            =   7.1285293052756E-07
(PID.TID 0000.0001) %MON advcfl_uvel_max              =   1.4252771269838E-03
(PID.TID 0000.0001) %MON advcfl_vvel_max              =   1.1520943667404E-03
(PID.TID 0000.0001) %MON advcfl_wvel_max              =   2.6937550684810E-03
(PID.TID 0000.0001) %MON advcfl_W_hf_max              =   2.6937550684810E-03
(PID.TID 0000.0001) %MON pe_b_mean                    =  -8.3059456208034E-01
(PID.TID 0000.0001) %MON ke_max                       =   6.1384436640097E-05
(PID.TID 0000.0001) %MON ke_mean                      =   1.2739437404096E-07
(PID.TID 0000.0001) %MON ke_vol                       =   4.2724922591366E+12
(PID.TID 0000.0001) // =======================================================
(PID.TID 0000.0001) // End MONITOR dynamic field statistics
(PID.TID 0000.0001) // =======================================================
(PID.TID 0000.0001) // =======================================================
(PID.TID 0000.0001) // Begin OBCS MONITOR field statistics
(PID.TID 0000.0001) // =======================================================
(PID.TID 0000.0001) %MON obc_N_vVel_max               =   1.4774918219716E-05
(PID.TID 0000.0001) %MON obc_N_vVel_min               =   1.4774918219715E-05
(PID.TID 0000.0001) %MON obc_N_vVel_mean              =   1.4774918219715E-05
(PID.TID 0000.0001) %MON obc_N_vVel_sd                =   4.8018391866987E-12
(PID.TID 0000.0001) %MON obc_N_vVel_Int               =   9.7514460250121E+02
(PID.TID 0000.0001) // =======================================================
(PID.TID 0000.0001) // End OBCS MONITOR field statistics
(PID.TID 0000.0001) // =======================================================
(PID.TID 0000.0001) %CHECKPOINT       865 ckptA
(PID.TID 0000.0001)   Seconds in section "ALL                    [THE_MODEL_MAIN]":
(PID.TID 0000.0001)           User time:   17.077119773719460
(PID.TID 0000.0001)         System time:  0.15563198924064636
(PID.TID 0000.0001)     Wall clock time:   17.233001947402954
(PID.TID 0000.0001)          No. starts:           1
(PID.TID 0000.0001)           No. stops:           1
(PID.TID 0000.0001)   Seconds in section "INITIALISE_FIXED       [THE_MODEL_MAIN]":
(PID.TID 0000.0001)           User time:   2.0763999316841364E-002
(PID.TID 0000.0001)         System time:   8.6580067873001099E-003
(PID.TID 0000.0001)     Wall clock time:   2.9731035232543945E-002
(PID.TID 0000.0001)          No. starts:           1
(PID.TID 0000.0001)           No. stops:           1
(PID.TID 0000.0001)   Seconds in section "THE_MAIN_LOOP          [THE_MODEL_MAIN]":
(PID.TID 0000.0001)           User time:   17.056352866813540
(PID.TID 0000.0001)         System time:  0.14696300029754639
(PID.TID 0000.0001)     Wall clock time:   17.203259944915771
(PID.TID 0000.0001)          No. starts:           1
(PID.TID 0000.0001)           No. stops:           1
(PID.TID 0000.0001)   Seconds in section "INITIALISE_VARIA    [THE_MAIN_LOOP]":
(PID.TID 0000.0001)           User time:   8.0239996314048767E-003
(PID.TID 0000.0001)         System time:   1.5286996960639954E-002
(PID.TID 0000.0001)     Wall clock time:   2.3310899734497070E-002
(PID.TID 0000.0001)          No. starts:           1
(PID.TID 0000.0001)           No. stops:           1
(PID.TID 0000.0001)   Seconds in section "MAIN LOOP           [THE_MAIN_LOOP]":
(PID.TID 0000.0001)           User time:   17.048323050141335
(PID.TID 0000.0001)         System time:  0.13166899979114532
(PID.TID 0000.0001)     Wall clock time:   17.179936885833740
(PID.TID 0000.0001)          No. starts:           1
(PID.TID 0000.0001)           No. stops:           1
(PID.TID 0000.0001)   Seconds in section "MAIN_DO_LOOP        [THE_MAIN_LOOP]":
(PID.TID 0000.0001)           User time:   17.045426115393639
(PID.TID 0000.0001)         System time:  0.13160899281501770
(PID.TID 0000.0001)     Wall clock time:   17.176969766616821
(PID.TID 0000.0001)          No. starts:         865
(PID.TID 0000.0001)           No. stops:         865
(PID.TID 0000.0001)   Seconds in section "FORWARD_STEP        [MAIN_DO_LOOP]":
(PID.TID 0000.0001)           User time:   17.039341401308775
(PID.TID 0000.0001)         System time:  0.13149800896644592
(PID.TID 0000.0001)     Wall clock time:   17.170772314071655
(PID.TID 0000.0001)          No. starts:         865
(PID.TID 0000.0001)           No. stops:         865
(PID.TID 0000.0001)   Seconds in section "SHELFICE_REMESHING     [FORWARD_STEP]":
(PID.TID 0000.0001)           User time:   3.9286270737648010E-002
(PID.TID 0000.0001)         System time:   5.6996941566467285E-005
(PID.TID 0000.0001)     Wall clock time:   3.9396047592163086E-002
(PID.TID 0000.0001)          No. starts:         865
(PID.TID 0000.0001)           No. stops:         865
(PID.TID 0000.0001)   Seconds in section "DO_STATEVARS_DIAGS  [FORWARD_STEP]":
(PID.TID 0000.0001)           User time:  0.40206190571188927
(PID.TID 0000.0001)         System time:   5.2460432052612305E-003
(PID.TID 0000.0001)     Wall clock time:  0.40786695480346680
(PID.TID 0000.0001)          No. starts:        2595
(PID.TID 0000.0001)           No. stops:        2595
(PID.TID 0000.0001)   Seconds in section "LOAD_FIELDS_DRIVER  [FORWARD_STEP]":
(PID.TID 0000.0001)           User time:   9.0788230299949646E-003
(PID.TID 0000.0001)         System time:   1.6696751117706299E-004
(PID.TID 0000.0001)     Wall clock time:   9.2661380767822266E-003
(PID.TID 0000.0001)          No. starts:         865
(PID.TID 0000.0001)           No. stops:         865
(PID.TID 0000.0001)   Seconds in section "EXTERNAL_FLDS_LOAD [LOAD_FLDS_DRIVER]":
(PID.TID 0000.0001)           User time:   3.0800700187683105E-003
(PID.TID 0000.0001)         System time:   5.8084726333618164E-005
(PID.TID 0000.0001)     Wall clock time:   3.1201839447021484E-003
(PID.TID 0000.0001)          No. starts:         865
(PID.TID 0000.0001)           No. stops:         865
(PID.TID 0000.0001)   Seconds in section "DO_ATMOSPHERIC_PHYS [FORWARD_STEP]":
(PID.TID 0000.0001)           User time:   2.9860772192478180E-003
(PID.TID 0000.0001)         System time:   5.2958726882934570E-005
(PID.TID 0000.0001)     Wall clock time:   3.0527114868164062E-003
(PID.TID 0000.0001)          No. starts:         865
(PID.TID 0000.0001)           No. stops:         865
(PID.TID 0000.0001)   Seconds in section "DO_OCEANIC_PHYS     [FORWARD_STEP]":
(PID.TID 0000.0001)           User time:   1.0236232429742813
(PID.TID 0000.0001)         System time:   1.8189996480941772E-002
(PID.TID 0000.0001)     Wall clock time:   1.0421073436737061
(PID.TID 0000.0001)          No. starts:         865
(PID.TID 0000.0001)           No. stops:         865
(PID.TID 0000.0001)   Seconds in section "SHELFICE_THERMODYNAMICS [DO_OCEANIC_PHYS]":
(PID.TID 0000.0001)           User time:   9.2388395220041275E-002
(PID.TID 0000.0001)         System time:   1.6009807586669922E-003
(PID.TID 0000.0001)     Wall clock time:   9.4072341918945312E-002
(PID.TID 0000.0001)          No. starts:         865
(PID.TID 0000.0001)           No. stops:         865
(PID.TID 0000.0001)   Seconds in section "DYNAMICS            [FORWARD_STEP]":
(PID.TID 0000.0001)           User time:   3.3839129768311977
(PID.TID 0000.0001)         System time:   3.1854003667831421E-002
(PID.TID 0000.0001)     Wall clock time:   3.4166312217712402
(PID.TID 0000.0001)          No. starts:         865
(PID.TID 0000.0001)           No. stops:         865
(PID.TID 0000.0001)   Seconds in section "UPDATE_SURF_DR      [FORWARD_STEP]":
(PID.TID 0000.0001)           User time:   2.8686754405498505E-002
(PID.TID 0000.0001)         System time:   8.7022781372070312E-005
(PID.TID 0000.0001)     Wall clock time:   2.8816223144531250E-002
(PID.TID 0000.0001)          No. starts:         865
(PID.TID 0000.0001)           No. stops:         865
(PID.TID 0000.0001)   Seconds in section "UPDATE_CG2D         [FORWARD_STEP]":
(PID.TID 0000.0001)           User time:  0.10353214666247368
(PID.TID 0000.0001)         System time:   2.1499395370483398E-004
(PID.TID 0000.0001)     Wall clock time:  0.10384416580200195
(PID.TID 0000.0001)          No. starts:         865
(PID.TID 0000.0001)           No. stops:         865
(PID.TID 0000.0001)   Seconds in section "SOLVE_FOR_PRESSURE  [FORWARD_STEP]":
(PID.TID 0000.0001)           User time:   1.4854941293597221
(PID.TID 0000.0001)         System time:   4.3980479240417480E-003
(PID.TID 0000.0001)     Wall clock time:   1.4902970790863037
(PID.TID 0000.0001)          No. starts:         865
(PID.TID 0000.0001)           No. stops:         865
(PID.TID 0000.0001)   Seconds in section "MOM_CORRECTION_STEP [FORWARD_STEP]":
(PID.TID 0000.0001)           User time:  0.22047081962227821
(PID.TID 0000.0001)         System time:   1.2029856443405151E-003
(PID.TID 0000.0001)     Wall clock time:  0.22192239761352539
(PID.TID 0000.0001)          No. starts:         865
(PID.TID 0000.0001)           No. stops:         865
(PID.TID 0000.0001)   Seconds in section "INTEGR_CONTINUITY   [FORWARD_STEP]":
(PID.TID 0000.0001)           User time:  0.29474940150976181
(PID.TID 0000.0001)         System time:   1.9949674606323242E-003
(PID.TID 0000.0001)     Wall clock time:  0.29702234268188477
(PID.TID 0000.0001)          No. starts:         865
(PID.TID 0000.0001)           No. stops:         865
(PID.TID 0000.0001)   Seconds in section "CALC_SURF_DR      [FORWARD_STEP]":
(PID.TID 0000.0001)           User time:   6.3431620597839355E-002
(PID.TID 0000.0001)         System time:   4.1900575160980225E-004
(PID.TID 0000.0001)     Wall clock time:   6.3913583755493164E-002
(PID.TID 0000.0001)          No. starts:         865
(PID.TID 0000.0001)           No. stops:         865
(PID.TID 0000.0001)   Seconds in section "BLOCKING_EXCHANGES  [FORWARD_STEP]":
(PID.TID 0000.0001)           User time:  0.53847403824329376
(PID.TID 0000.0001)         System time:   2.1819919347763062E-003
(PID.TID 0000.0001)     Wall clock time:  0.54132080078125000
(PID.TID 0000.0001)          No. starts:        1730
(PID.TID 0000.0001)           No. stops:        1730
(PID.TID 0000.0001)   Seconds in section "THERMODYNAMICS      [FORWARD_STEP]":
(PID.TID 0000.0001)           User time:   6.1169477961957455
(PID.TID 0000.0001)         System time:   1.5808984637260437E-002
(PID.TID 0000.0001)     Wall clock time:   6.1339628696441650
(PID.TID 0000.0001)          No. starts:         865
(PID.TID 0000.0001)           No. stops:         865
(PID.TID 0000.0001)   Seconds in section "TRC_CORRECTION_STEP [FORWARD_STEP]":
(PID.TID 0000.0001)           User time:   1.5591924749314785
(PID.TID 0000.0001)         System time:   3.9899349212646484E-004
(PID.TID 0000.0001)     Wall clock time:   1.5601851940155029
(PID.TID 0000.0001)          No. starts:         865
(PID.TID 0000.0001)           No. stops:         865
(PID.TID 0000.0001)   Seconds in section "MONITOR             [FORWARD_STEP]":
(PID.TID 0000.0001)           User time:   1.6050556860864162
(PID.TID 0000.0001)         System time:   1.9100010395050049E-002
(PID.TID 0000.0001)     Wall clock time:   1.6246695518493652
(PID.TID 0000.0001)          No. starts:         865
(PID.TID 0000.0001)           No. stops:         865
(PID.TID 0000.0001)   Seconds in section "DO_THE_MODEL_IO     [FORWARD_STEP]":
(PID.TID 0000.0001)           User time:   6.6767673939466476E-002
(PID.TID 0000.0001)         System time:   5.3269714117050171E-003
(PID.TID 0000.0001)     Wall clock time:   7.2157382965087891E-002
(PID.TID 0000.0001)          No. starts:         865
(PID.TID 0000.0001)           No. stops:         865
(PID.TID 0000.0001)   Seconds in section "DO_WRITE_PICKUP     [FORWARD_STEP]":
(PID.TID 0000.0001)           User time:   1.8862355500459671E-002
(PID.TID 0000.0001)         System time:   2.4045929312705994E-002
(PID.TID 0000.0001)     Wall clock time:   4.2894840240478516E-002
(PID.TID 0000.0001)          No. starts:         865
(PID.TID 0000.0001)           No. stops:         865
(PID.TID 0000.0001) // ======================================================
(PID.TID 0000.0001) // Tile <-> Tile communication statistics
(PID.TID 0000.0001) // ======================================================
(PID.TID 0000.0001) // o Tile number: 000001
(PID.TID 0000.0001) //         No. X exchanges =              0
(PID.TID 0000.0001) //            Max. X spins =              0
(PID.TID 0000.0001) //            Min. X spins =     1000000000
(PID.TID 0000.0001) //          Total. X spins =              0
(PID.TID 0000.0001) //            Avg. X spins =       0.00E+00
(PID.TID 0000.0001) //         No. Y exchanges =              0
(PID.TID 0000.0001) //            Max. Y spins =              0
(PID.TID 0000.0001) //            Min. Y spins =     1000000000
(PID.TID 0000.0001) //          Total. Y spins =              0
(PID.TID 0000.0001) //            Avg. Y spins =       0.00E+00
(PID.TID 0000.0001) // o Thread number: 000001
(PID.TID 0000.0001) //            No. barriers =         535590
(PID.TID 0000.0001) //      Max. barrier spins =              1
(PID.TID 0000.0001) //      Min. barrier spins =              1
(PID.TID 0000.0001) //     Total barrier spins =         535590
(PID.TID 0000.0001) //      Avg. barrier spins =       1.00E+00
PROGRAM MAIN: Execution ended Normally
